/*--------------------------------*- C++ -*----------------------------------*\
| =========                 |                                                 |
| \\      /  F ield         | OpenFOAM: The Open Source CFD Toolbox           |
|  \\    /   O peration     | Version:  1.7.1                                 |
|   \\  /    A nd           | Web:      www.OpenFOAM.com                      |
|    \\/     M anipulation  |                                                 |
\*---------------------------------------------------------------------------*/
FoamFile
{
    version     2.0;
    format      ascii;
    class       dictionary;
    location    "system";
    object      controlDict;
}
// * * * * * * * * * * * * * * * * * * * * * * * * * * * * * * * * * * * * * //

application     icoFoam;

startFrom       startTime;

startTime       0;

stopAt          endTime;

endTime         0.5;

deltaT          0.005;

writeControl    timeStep;

writeInterval   20;

purgeWrite      0;

writeFormat     ascii;

writePrecision  6;

writeCompression compressed;

timeFormat      general;

timePrecision   6;

runTimeModifiable yes;

functions { 
    pythonSimple
    {
        type pythonIntegration;
        startCode "print 'Starting';a=0; print dir()";
        executeCode "a+=1; print 'a:',a";
        endCode "print 'Never been here'";
        //        tolerateExceptions true;
        parallelMasterOnly false;
        isParallelized true;
    }
    pythonOutput
    {
        type pythonIntegration;

        startCode "";
        executeCode "print 'timeName :',timeName,'outputTime:',outputTime";
        endCode "print 'timeName :',timeName,'outputTime:',outputTime";
        //        tolerateExceptions true;
        parallelMasterOnly true;
    }
    pythonPaths
    {
        type pythonIntegration;
        startFile "$FOAM_CASE/printPaths.py";
        executeCode "from os import environ;print 'FOAM_CASE=',environ['FOAM_CASE'];print 'Time data:',timeDir";
        endCode "print 'Never been here'";
//        tolerateExceptions true;
        parallelMasterOnly false;
        isParallelized true;
    }
    pythonPyFoam
    {
        type pythonIntegration;
        startCode "from os import path;from PyFoam.RunDictionary.ParsedParameterFile import ParsedParameterFile";
        // executeCode "print 'Time till end:',float(ParsedParameterFile(path.join(caseDir,'system','controlDict'))['endTime'])-runTime";
        executeFile "$FOAM_CASE/executePyFoam.py";
        endCode "print 'Never been here'";
        //        tolerateExceptions true;
        parallelMasterOnly true;
    }
    pythonPythonFlu
    {
        type pythonIntegration;
        startCode "import Foam.OpenFOAM as OF";
        endCode "print ";
        executeCode "print 'Nr of Procs:',OF.Pstream.nProcs()";
        tolerateExceptions true;
        parallelMasterOnly false;
        isParallelized true;
    }
    onlyWithFlu {
        type executeIfPython;
        readDuringConstruction false;
        parallelMasterOnly false;
        isParallelized true;

        conditionFile "$FOAM_CASE/checkPythonFlu.py";

        functions {
            pythonPythonFluFull
            {
                type pythonFluIntegration;
                startCode "print type(time)";
                endCode "print ";
                executeCode "print 'Nr of Procs:',OpenFOAM.Pstream.nProcs();print type(time);print dir();print time.timePath()";
                //        tolerateExceptions true;
                parallelMasterOnly false;
                isParallelized true;
            }
        }
    }
    onlyWithMpi4Py {
        type executeIfPython;
        readDuringConstruction false;
        parallelMasterOnly false;
        isParallelized true;

        conditionFile "$FOAM_CASE/checkMpi4Py.py";

        functions {
            GatherDataWithPython
            {
                type pythonIntegration;
                startFile "$FOAM_CASE/startMpi4Py.py";
                executeFile "$FOAM_CASE/executeMpi4Py.py";
                endFile $executeFile;
                //        tolerateExceptions true;
                parallelMasterOnly false;
                isParallelized true;
            }
        }
    }
    addScalar
    {
        type addGlobalVariable;
        outputControl timeStep;
        outputInterval 1;
        globalScope pythonVars;
        globalName aScalar;
        valueType scalar;
        value 42;
    }
    addVector
    {
        type addGlobalVariable;
        outputControl timeStep;
        outputInterval 1;
        globalScope pythonVars;
        globalName aVector;
        valueType vector;
        value (1 2 3);
    }

    pythonGetGlobals
    {
        type pythonIntegration;
        swakToPythonNamespaces ( pythonVars );
        startCode "print 'Start:',aVector,aScalar;newTime=0;newVector=range(3)";
        executeCode "print 'Running:',map(lambda x:x*(runTime+aScalar),aVector);newTime=aScalar*runTime;newVector=(runTime,-runTime,1)";
        endCode "print 'Never been here'";
        //        tolerateExceptions true;
        pythonToSwakNamespace testPython;
        pythonToSwakVariables (  newTime newVector );
        parallelMasterOnly false;
        isParallelized true;
    }
    pythonGetPyFoamGlobals
    {
        type pythonIntegration;
        swakToPythonNamespaces ( testPython );
        startCode "print 'Start PyFoam:',newVector;from PyFoam.Basics.FoamFileGenerator import Vector;foamVector=Vector(0,0,0)";
        executeCode "foamVector=Vector(newVector[0],newVector[1],newVector[2]);print foamVector";
        endCode "print 'Never been here'";
        //        tolerateExceptions true;
        pythonToSwakNamespace testPyFoam;
        pythonToSwakVariables ( foamVector );
        parallelMasterOnly false;
        isParallelized true;
    }
}

libs (
    "libgroovyBC.so"
    "libpythonIntegration.so"
    "libswakFunctionObjects.so"
);

// ************************************************************************* //
