/*--------------------------------*- C++ -*----------------------------------*\
| =========                 |                                                 |
| \\      /  F ield         | OpenFOAM: The Open Source CFD Toolbox           |
|  \\    /   O peration     | Version:  1.7.1                                 |
|   \\  /    A nd           | Web:      www.OpenFOAM.com                      |
|    \\/     M anipulation  |                                                 |
\*---------------------------------------------------------------------------*/
FoamFile
{
    version     2.0;
    format      ascii;
    class       dictionary;
    location    "system";
    object      controlDict;
}
// * * * * * * * * * * * * * * * * * * * * * * * * * * * * * * * * * * * * * //

application     icoFoam;

startFrom       startTime;

startTime       0;

stopAt          endTime;

endTime         0.5;

deltaT          0.005;

writeControl    timeStep;

writeInterval   20;

purgeWrite      0;

writeFormat     ascii;

writePrecision  6;

writeCompression compressed;

timeFormat      general;

timePrecision   6;

runTimeModifiable yes;

functions (
    pythonSimple
    {
        type pythonIntegration;
        startCode "print 'Starting';a=0; print dir()";
        executeCode "a+=1; print 'a:',a";
        writeCode "print 'Never been here'";
        //        tolerateExceptions true;
    }
    pythonPyFoam
    {
        type pythonIntegration;
        startCode "from os import path;from PyFoam.RunDictionary.ParsedParameterFile import ParsedParameterFile";
        // executeCode "print 'Time till end:',float(ParsedParameterFile(path.join(caseDir,'system','controlDict'))['endTime'])-runTime";
        executeFile "$FOAM_CASE/executePyFoam.py";
        writeCode "print 'Never been here'";
        //        tolerateExceptions true;
    }
    pythonPythonFlu
    {
        type pythonIntegration;
        startCode "import Foam.OpenFOAM as OF";
        writeCode "print ";
        executeCode "print 'Nr of Procs:',OF.Pstream.nProcs()";
        tolerateExceptions true;
    }

    pythonPythonFluFull
    {
        type pythonFluIntegration;
        startCode "import Foam.OpenFOAM";
        writeCode "print ";
        executeCode "print 'Nr of Procs:',Foam.OpenFOAM.Pstream.nProcs()";
        //        tolerateExceptions true;
    }
);

libs (
    "libgroovyBC.so"
    "libpythonIntegration.so"
);

// ************************************************************************* //
