/*--------------------------------*- C++ -*----------------------------------*\
| =========                 |                                                 |
| \\      /  F ield         | OpenFOAM: The Open Source CFD Toolbox           |
|  \\    /   O peration     | Version:  1.5                                   |
|   \\  /    A nd           | Web:      http://www.OpenFOAM.org               |
|    \\/     M anipulation  |                                                 |
\*---------------------------------------------------------------------------*/
FoamFile
{
    version     2.0;
    format      ascii;
    class       dictionary;
    object      fvSchemes;
}
// * * * * * * * * * * * * * * * * * * * * * * * * * * * * * * * * * * * * * //

ddtSchemes
{
    default backward;
    //    ddt(distance) steadyState;
    ddt(heat) Euler;
}

gradSchemes
{
    default         Gauss linear;
    grad(p)         Gauss linear;
    grad(U)         Gauss linear;
}

divSchemes
{
    default         none;
    div(phi,U)      Gauss linear;
    div(phi,k)      Gauss limitedLinear 1;
    div(phi,B)      Gauss limitedLinear 1;
    div(phi,nuTilda) Gauss limitedLinear 1;

    div(B)          Gauss linear;
    div((nuEff*dev(T(grad(U))))) Gauss linear;

    div(phi,residualTime)      Gauss linear;
    div(phi,scalar)      Gauss linear;
}

laplacianSchemes
{
    default         none;
    laplacian(nuEff,U) Gauss linear corrected;
    laplacian((1|A(U)),p) Gauss linear corrected;
    laplacian(DkEff,k) Gauss linear corrected;
    laplacian(DBEff,B) Gauss linear corrected;
    laplacian(DnuTildaEff,nuTilda) Gauss linear corrected;

    laplacian(lambda,distance) Gauss linear uncorrected;
    laplacian(lambda,heat) Gauss linear corrected;

    laplacian(diffusion,residualTime) Gauss linear corrected;
    laplacian(diffusion,scalar) Gauss linear corrected;
}

interpolationSchemes
{
    default         linear;
    interpolate(U)  linear;
}

snGradSchemes
{
    default         corrected;
}

fluxRequired
{
    default         no;
    p;
}

// ************************************************************************* //
