/*--------------------------------*- C++ -*----------------------------------*\
| =========                 |                                                 |
| \\      /  F ield         | OpenFOAM: The Open Source CFD Toolbox           |
|  \\    /   O peration     | Version:  1.7.1                                 |
|   \\  /    A nd           | Web:      www.OpenFOAM.com                      |
|    \\/     M anipulation  |                                                 |
\*---------------------------------------------------------------------------*/
FoamFile
{
    version     2.0;
    format      ascii;
    class       dictionary;
    location    "system";
    object      controlDict;
}
// * * * * * * * * * * * * * * * * * * * * * * * * * * * * * * * * * * * * * //

application     icoFoam;

startFrom       startTime;

startTime       0;

stopAt          endTime;

endTime         0.5;

deltaT          0.005;

writeControl    timeStep;

writeInterval   20;

purgeWrite      0;

writeFormat     ascii;

writePrecision  6;

writeCompression compressed;

timeFormat      general;

timePrecision   6;

runTimeModifiable yes;

libs (
    "libsimpleFunctionObjects.so"
    "libsimpleLagrangianFunctionObjects.so"
    "libswakLagrangianCloudSourcesFunctionPlugin.so"
    "libswakFunctionObjects.so"
);

functions {
    loadThermoForParcels {
        type loadPsiThermoModel;
        correctModel false;
        allowReload false;
    }
    kinematicParticle {
        type evolveKinematicCloud;
        cloudName injectFromTop;
        g "down" [0 1 -2 0 0 0 0] (0 -9.81 0);
        rhoName rho;
        UName U;
        muName mu;
    }
    momentumSourceKinematic {
        type expressionField;
        autowrite true;
        expression "lcsMomentumSource(injectFromTop)";
        outputControl timeStep;
        outputInterval 1;
        fieldName injectFromTopMomentumSource;
    }
    massFractionKinematic {
        type expressionField;
        autowrite true;
        expression "lcsMassFraction(injectFromTop)";
        outputControl timeStep;
        outputInterval 1;
        fieldName injectFromTopMassFraction;
    }
    volumeFractionKinematic {
        type expressionField;
        autowrite true;
        expression "lcsVolumeFraction(injectFromTop)";
        outputControl timeStep;
        outputInterval 1;
        fieldName injectFromTopVolumeFraction;
    }
    rhoEffKinematic {
        type expressionField;
        autowrite true;
        expression "lcsRhoEff(injectFromTop)";
        outputControl timeStep;
        outputInterval 1;
        fieldName injectFromTopRhoEff;
    }
    reactingParticle {
        type evolveThermoReactingCloud;
        cloudName injectFromLeft;
        g "down" [0 1 -2 0 0 0 0] (0 -9.81 0);
        rhoName rho;
        UName U;
        thermoPhysicsName thermophysicalProperties;
    }
    massSource {
        type expressionField;
        autowrite true;
        expression "lcsMassSource(injectFromLeft)";
        outputControl timeStep;
        outputInterval 1;
        fieldName injectFromLeftMassSource;
    }
    enthalpySource {
        type expressionField;
        autowrite true;
        expression "lcsEnthalpySource(injectFromLeft)";
        outputControl timeStep;
        outputInterval 1;
        fieldName injectFromLeftEnthalpySource;
    }
    H2OSource {
        type expressionField;
        autowrite true;
        expression "lcsSpeciesSource(injectFromLeft,H2O)";
        outputControl timeStep;
        outputInterval 1;
        fieldName injectFromLeftH2OSource;
    }
}

// ************************************************************************* //
