/*--------------------------------*- C++ -*----------------------------------*\
| =========                 |                                                 |
| \\      /  F ield         | OpenFOAM: The Open Source CFD Toolbox           |
|  \\    /   O peration     | Version:  1.7.1                                 |
|   \\  /    A nd           | Web:      www.OpenFOAM.com                      |
|    \\/     M anipulation  |                                                 |
\*---------------------------------------------------------------------------*/
FoamFile
{
    version     2.0;
    format      ascii;
    class       dictionary;
    location    "system";
    object      controlDict;
}
// * * * * * * * * * * * * * * * * * * * * * * * * * * * * * * * * * * * * * //

// Test the python-postprocessing utility

preloadFields (
    p
    U
);

functions {
    gradField {
        type expressionField;
        outputControl timeStep;
        outputInterval 1;
        fieldName gradP;
        expression "grad(p)";
        autowrite true;
    }
    toGlobalNamespace {
        type calculateGlobalVariables;
        outputControl timeStep;
        outputInterval 1;

        valueType internalField;
        toGlobalNamespace fieldData;
        toGlobalVariables (
            positions
        );
        variables (
            "positions=pos();"
            "velocity=U;"
            "pressure=p;"
            "gradPressure=gradP;"
        );
    }
}

libs (
    "libswakFunctionObjects.so"
);

// ************************************************************************* //
