/*--------------------------------*- C++ -*----------------------------------*\
| =========                 |                                                 |
| \\      /  F ield         | OpenFOAM: The Open Source CFD Toolbox           |
|  \\    /   O peration     | Version:  1.7.0                                 |
|   \\  /    A nd           | Web:      www.OpenFOAM.com                      |
|    \\/     M anipulation  |                                                 |
\*---------------------------------------------------------------------------*/
FoamFile
{
    version     2.0;
    format      binary;
    class       dictionary;
    location    "system";
    object      controlDict;
}
// * * * * * * * * * * * * * * * * * * * * * * * * * * * * * * * * * * * * * //

application     rhoPorousSimpleFoam;

startFrom       startTime;

startTime       0;

stopAt          endTime;

endTime         100;

deltaT          1;

writeControl    timeStep;

writeInterval   10;

purgeWrite      0;

writeFormat     ascii;

writePrecision  6;

writeCompression compressed;

timeFormat      general;

timePrecision   6;

graphFormat     raw;

runTimeModifiable yes;

functions
(
    pressureToFilterVolAvg
    {
        type patchExpression;
        variables "pFilter{cellZone'porosity}=sum(p*vol())/sum(vol());";
        accumulations (
            average
        );
        patches (
            inlet 
            outlet
        );
        expression "p-pFilter";
        verbose true;
    }
    pressureToFilter
    {
        type patchExpression;
        variables "pFilter{cellZone'porosity}=average(p);";
        accumulations (
            average
        );
        patches (
            inlet 
            outlet
        );
        expression "p-pFilter";
        verbose true;
    }
    distanceToFilter
    {
        type patchExpression;
        variables "pFilter{cellZone'porosity}=average(pos());";
        accumulations (
            average
        );
        patches (
            inlet 
            outlet
        );
        expression "mag(pos()-pFilter)";
        verbose true;
    }
    alternatePressureToFilter
    {
        type swakExpression;
        valueType patch;
        patchName outlet;
        variables "pFilter{cellZone'porosity}=average(p);";
        accumulations (
            average
        );
        expression "p-pFilter";
        verbose true;
    }
    alternatePressureToFilter2
    {
        type swakExpression;
        valueType cellZone;
        zoneName porosity;
        variables "pRaus{outlet}=average(p);";
        accumulations (
            average
        );
        expression "pRaus-p";
        verbose true;
    }
    alternatePressureToFilter3
    {
        type swakExpression;
        valueType cellSet;
        setName porosity;
        variables "pRaus{outlet}=average(p);";
        accumulations (
            average
        );
        expression "pRaus-p";
        verbose true;
    }
    alternatePressureToFilter4
    {
        type swakExpression;
        valueType patch;
        patchName outlet;
        variables "pFilter{cellSet'porosity}=average(p);";
        accumulations (
            average
        );
        expression "p-pFilter";
        verbose true;
    }
    pressureInletToFilter
    {
        type swakExpression;
        valueType patch;
        patchName inlet;
        variables "pBefore{faceZone'beforeFilter}=average(p);";
        accumulations (
            average
        );
        expression "p-pBefore";
        verbose true;
        autoInterpolate true;
        warnAutoInterpolate false;
    }
    pressureOverFilter
    {
        type swakExpression;
        valueType faceZone;
        zoneName beforeFilter;
        variables "pAfter{faceSet'afterFilter}=average(p);";
        accumulations (
            average
        );
        expression "p-pAfter";
        verbose true;
        autoInterpolate true;
        warnAutoInterpolate false;
    }
    pressureFilterToOutlet
    {
        type swakExpression;
        valueType patch;
        patchName outlet;
        variables "pAfter{faceSet'afterFilter}=average(p);";
        accumulations (
            average
        );
        expression "pAfter-p";
        verbose true;
        autoInterpolate true;
        warnAutoInterpolate false;
    }
    flowBeforeSet
    {
        type swakExpression;
        valueType faceSet;
        setName beforeFilter;
        expression "phi*flip()";
        accumulations (
            sum
        );
        verbose true;
    }
    flowAfterSet
    {
        type swakExpression;
        valueType faceSet;
        setName afterFilter;
        expression "phi*flip()";
        accumulations (
            sum
        );
        verbose true;
    }
    flowBeforeZone
    {
        type swakExpression;
        valueType faceZone;
        zoneName beforeFilter;
        expression "phi*flip()";
        accumulations (
            sum
        );
        verbose true;
    }
    flowAfterZone
    {
        type swakExpression;
        valueType faceZone;
        zoneName afterFilter;
        expression "phi*flip()";
        accumulations (
            sum
        );
        verbose true;
    }
    flowInlet
    {
        type swakExpression;
        valueType patch;
        patchName inlet;
        expression "phi";
        accumulations (
            sum
        );
        verbose true;
    }
    flowOutlet
    {
        type swakExpression;
        valueType patch;
        patchName outlet;
        expression "phi";
        accumulations (
            sum
        );
        verbose true;
    }
    filterMeanDiff
    {
        type swakExpression;
        valueType internalField;
        variables "pFilter{cellZone'porosity}=sum(p*vol())/sum(vol());";        
        expression "p-pFilter";
        accumulations (
            min
            max
        );
        verbose true;
    }
    velocityExtreme
    {
        type swakExpression;
        valueType internalField;
        accumulations (
            min
            max
        );
        expression "mag(U)";
        verbose true;
    }
    surfacePlane
    {
        type swakExpression;
        valueType surface;
        surfaceName test;
        surface {
            type plane;
            basePoint       (0 0 0);
            normalVector    (0 0 1);
            interpolate false;
        }
        verbose true;
        expression "mag(U)";
        accumulations (
            min
            max
        );
    }
    surfacePlane2
    {
        type swakExpression;
        valueType surface;
        surfaceName test;
        surface {
            type plane;
            basePoint       (0 0 0);
            normalVector    (0 0 1);
            interpolate true;
        }
        verbose true;
        expression "mag(U)";
        accumulations (
            min
            max
        );
    }
    surfacePatch
    {
        type swakExpression;
        valueType surface;
        surfaceName test;
        surface {
            type patch;
            patchName outlet;
            //            triangulate      false;      
        }
        verbose true;
        expression "mag(U)";
        accumulations (
            min
            max
        );
    }
    surfaceCuttingPlane
    {
        type swakExpression;
        valueType surface;
        surfaceName test;
        surface {
            type cuttingPlane;
            planeType       pointAndNormal;
            pointAndNormalDict
            {
                basePoint       (0 0 0);
                normalVector    (0 0 1);
            }
            interpolate false;
        }
        verbose true;
        expression "mag(U)";
        accumulations (
            min
            max
        );
    }
    distField
    {
        type expressionField;
        outputControl timeStep;
        outputInterval 1;
        fieldName distanceFromZero;
        expression "mag(pos())";
        autowrite true;        
    }
    surfaceIsoDist
    {
        type swakExpression;
        valueType surface;
        surfaceName test;
        surface {
            type isoSurface;
            isoField distanceFromZero;
            isoValue 0.1;
            interpolate true;
        }
        verbose true;
        expression "mag(U)";
        accumulations (
            min
            max
        );
    }
    surfaceIsoDist2
    {
        type swakExpression;
        valueType surface;
        surfaceName test;
        surface {
            type isoSurface;
            isoField distanceFromZero;
            isoValue 0.1;
            interpolate true;
        }
        verbose true;
        //        variables "p=pts();";
        expression "pos()";
        accumulations (
            min
            max
        );
    }
    surfaceIsoInterpolateOn
    {
        type swakExpression;
        valueType surface;
        surfaceName test;
        surface {
            type isoSurface;
            isoField distanceFromZero;
            isoValue 0.1;
            interpolate true;
        }
        verbose true;
        //        variables "p=pts();";
        expression "p";
        accumulations (
            min
            max
        );
        interpolate on;
        interpolationType cellPointWallModified;
    }
    surfaceIsoInterpolateOff
    {
        type swakExpression;
        valueType surface;
        surfaceName test;
        surface {
            type isoSurface;
            isoField distanceFromZero;
            isoValue 0.1;
            interpolate true;
        }
        verbose true;
        //        variables "p=pts();";
        expression "p";
        accumulations (
            min
            max
        );
        interpolate off;
    }
    surfaceIsoDistCell
    {
        type swakExpression;
        valueType surface;
        surfaceName test;
        surface {
            type isoSurfaceCell;
            isoField distanceFromZero;
            isoValue 0.1;
            interpolate false;
            //            regularise      false;      
        }
        verbose true;
        expression "mag(U)";
        accumulations (
            min
            max
        );
    }
    velocityMagnitude
    {
        type expressionField;
        outputControl timeStep;
        outputInterval 1;
        fieldName magU;
        expression "mag(U)*sin(time())";
        autowrite true;        
    }
    surfaceU40
    {
        type swakExpression;
        valueType surface;
        surfaceName test;
        surface {
            type isoSurface;
            isoField magU;
            isoValue 40;
            interpolate true;
        }
        verbose true;
        //        variables "p=pts();";
        expression "pos()";
        accumulations (
            min
            max
        );
    }
);

libs ( 
    "libOpenFOAM.so" 
    "libgroovyBC.so" 
    "libsimpleSwakFunctionObjects.so" 
    "libswakFunctionObjects.so" 
    "libswakTopoSources.so" 
) ;

// ************************************************************************* //
