/*--------------------------------*- C++ -*----------------------------------*\
| =========                 |                                                 |
| \\      /  F ield         | OpenFOAM: The Open Source CFD Toolbox           |
|  \\    /   O peration     | Version:  v1906                                 |
|   \\  /    A nd           | Web:      www.OpenFOAM.com                      |
|    \\/     M anipulation  |                                                 |
\*---------------------------------------------------------------------------*/
FoamFile
{
    version     2.0;
    format      ascii;
    class       volScalarField;
    object      T;
}
// * * * * * * * * * * * * * * * * * * * * * * * * * * * * * * * * * * * * * //

dimensions      [0 0 0 1 0 0 0];

internalField   uniform 300;

boundaryField
{
    movingWall
    {
        type            zeroGradient;
    }

    "fixedWall.*"
    {
        type            zeroGradient;
    }

    cavity_to_leftHeater {
        type            compressible::turbulentTemperatureCoupledBaffleMixed;
        value           $internalField;
        Tnbr            T;
        kappaMethod     fluidThermo;
        kappa $kappaMethod;
        kappaName none;
    }

    cavity_to_rightHeater {
        type            compressible::turbulentTemperatureCoupledBaffleMixed;
        value           $internalField;
        Tnbr            T;
        kappaMethod     fluidThermo;
        kappa $kappaMethod;
        kappaName none;
    }

    cavity_to_bottomHeater {
        type            compressible::turbulentTemperatureCoupledBaffleMixed;
        value           $internalField;
        Tnbr            T;
        kappaMethod     fluidThermo;
        kappa $kappaMethod;
        kappaName none;
    }

    frontAndBack
    {
        type            empty;
    }
}

// ************************************************************************* //
