/*--------------------------------*- C++ -*----------------------------------*\
| =========                 |                                                 |
| \\      /  F ield         | OpenFOAM: The Open Source CFD Toolbox           |
|  \\    /   O peration     | Version:  1.7.1                                 |
|   \\  /    A nd           | Web:      www.OpenFOAM.com                      |
|    \\/     M anipulation  |                                                 |
\*---------------------------------------------------------------------------*/
FoamFile
{
    version     2.0;
    format      ascii;
    class       volScalarField;
    object      phi;
}
// * * * * * * * * * * * * * * * * * * * * * * * * * * * * * * * * * * * * * //

dimensions      [1 2 -3 0 0 -1 0];

internalField   uniform 0;

boundaryField
{
    box
    {
        //        type zeroGradient;
        type            fixedValue;
        value           uniform 0;
    }

    withHole_plate
    {
        //         type zeroGradient;
        //        type fixedValue;
        type fixedGradient;
        gradient uniform 1e3;
        value uniform 0;
    }
    withBump_plate
    {
        //        type zeroGradient;
        //        type fixedValue;
        type fixedGradient;
        gradient uniform -1e3;
        value uniform 0;
    }
}

// ************************************************************************* //
