/*--------------------------------*- C++ -*----------------------------------*\
| =========                 |                                                 |
| \\      /  F ield         | OpenFOAM: The Open Source CFD Toolbox           |
|  \\    /   O peration     | Version:  2.3.x                                 |
|   \\  /    A nd           | Web:      www.OpenFOAM.org                      |
|    \\/     M anipulation  |                                                 |
\*---------------------------------------------------------------------------*/
FoamFile
{
    version     2.0;
    format      ascii;
    class       volScalarField;
    location    "0";
    object      epsilon;
}
// * * * * * * * * * * * * * * * * * * * * * * * * * * * * * * * * * * * * * //

dimensions      [0 2 -3 0 0 0 0];

internalField   uniform 200;

boundaryField
{
    front
    {
        type            compressible::epsilonWallFunction;
        value           uniform 200;
        Cmu             0.09;
        kappa           0.41;
        E               9.8;
    }
    back
    {
        type            compressible::epsilonWallFunction;
        value           uniform 200;
        Cmu             0.09;
        kappa           0.41;
        E               9.8;
    }
    wall
    {
        type            compressible::epsilonWallFunction;
        value           uniform 200;
        Cmu             0.09;
        kappa           0.41;
        E               9.8;
    }
    porosityWall
    {
        type            compressible::epsilonWallFunction;
        value           uniform 200;
        Cmu             0.09;
        kappa           0.41;
        E               9.8;
    }
    inlet
    {
        type            compressible::turbulentMixingLengthDissipationRateInlet;
        mixingLength    0.005;
        phi             phi;
        k               k;
        value           uniform 200;
    }
    outlet
    {
        type            inletOutlet;
        inletValue      uniform 200;
        value           uniform 200;
    }
}


// ************************************************************************* //
