// -*- C++ -*-
// File generated by PyFoam - sorry for the ugliness

FoamFile
{
 version 2.0;
 format ascii;
 class volVectorField;
 object D;
}

dimensions [ 0 1 0 0 0 0 0 ];
internalField uniform (0 0 0);
boundaryField
{
  forced
  {
    type groovyBC;
    value uniform (0 0 0);
    //    valueExpression "vector(0,0.1*sin(time()),0)";
    timelines (
        {
            name impulse;
            outOfBounds clamp;
            fileName "$FOAM_CASE/impulse.data";
        }
    );
    lookuptables (
        {
            name impulseLookup;
            outOfBounds clamp;
            fileName "$FOAM_CASE/impulse.data";
        }
    );
    //    valueExpression "-impulse*normal()";
    valueExpression "-impulseLookup(time())*normal()";
    gradientExpression "vector(0,0,0)";
    //    fractionExpression "(time()<1.5*pi) ? ((pos().x>0.45 && pos().x<0.55) ? 1 : 0) : 0";
    fractionExpression "(time()<5) ? ((pos().x>0.45 && pos().x<0.55) ? 1 : 0) : 0";
    storedVariables (
        {
            name initialD;
            initialValue "D";
        }
        {
            name maxD;
            initialValue "0";
        }
        {
            name countSteps;
            initialValue "0";
        }
    );
    variables (
        "maxD=(maxD<mag(D)) ? mag(D) : maxD;"
        "countSteps=countSteps+1;"
    );
  }
  fixed
  {
      type fixedValue;
      value uniform (0 0 0);    
  }
  defaultFaces
  {
    type empty;
  }
  other
  {
    type zeroGradient;
  }
  free
  {
    type symmetryPlane;
  }
}
