/*--------------------------------*- C++ -*----------------------------------*\
| =========                 |                                                 |
| \\      /  F ield         | OpenFOAM: The Open Source CFD Toolbox           |
|  \\    /   O peration     | Version:  1.7.1                                 |
|   \\  /    A nd           | Web:      www.OpenFOAM.com                      |
|    \\/     M anipulation  |                                                 |
\*---------------------------------------------------------------------------*/
FoamFile
{
    version     2.0;
    format      ascii;
    class       dictionary;
    location    "system";
    object      controlDict;
}
// * * * * * * * * * * * * * * * * * * * * * * * * * * * * * * * * * * * * * //

application     simpleFoam;

startFrom       startTime;

startTime       0;

stopAt          endTime;

endTime         1000;

deltaT          1;

writeControl    timeStep;

writeInterval   50;

purgeWrite      0;

writeFormat     ascii;

writePrecision  6;

writeCompression compressed;

timeFormat      general;

timePrecision   6;

runTimeModifiable yes;

libs (
    "libswakFunctionObjects.so"
    "libswakPythonIntegration.so"
    "libsimpleSwakFunctionObjects.so"
);

functions {
    addMinX {
        type calculateGlobalVariables;
        outputControl timeStep;
        outputInterval 1;
        valueType internalField;
        toGlobalNamespace meshSize;
        toGlobalVariables (
            minX
            maxX
            nrPlanes
        );
        variables (
            "minX=interpolateToCell(min(pts().x));"
            "maxX=interpolateToCell(max(pts().x));"
            "nrPlanes=10;"
        );
    }
    every10Steps {
        type executeIfPython;
        readDuringConstruction true;
        useNumpy false;
        conditionCode "return (int(runTime) % 10)==0";
        functions {
            makeSlice {
                type dynamicFunctionObjectListProxy;
                dictionaryProvider stdoutFromPythonScriptProvider;
                readDuringConstruction true;

                scriptFile "$FOAM_CASE/system/makeSlices.py";
                useNumpy false; // this makes sure that only a single value is passed
                swakToPythonNamespaces (
                    meshSize
                );
            }
        }
};

// ************************************************************************* //
