/*--------------------------------*- C++ -*----------------------------------*\
| =========                 |                                                 |
| \\      /  F ield         | OpenFOAM: The Open Source CFD Toolbox           |
|  \\    /   O peration     | Version:  1.7.1                                 |
|   \\  /    A nd           | Web:      www.OpenFOAM.com                      |
|    \\/     M anipulation  |                                                 |
\*---------------------------------------------------------------------------*/
FoamFile
{
    version     2.0;
    format      ascii;
    class       dictionary;
    location    "system";
    object      controlDict;
}
// * * * * * * * * * * * * * * * * * * * * * * * * * * * * * * * * * * * * * //

application     replayTransientBC;

startFrom       startTime;

startTime       0;

stopAt          endTime;

endTime         0.5;

deltaT          0.005;

writeControl    adjustableRunTime;

writeInterval   0.1;

purgeWrite      0;

writeFormat     ascii;

writePrecision  6;

writeCompression compressed;

timeFormat      general;

timePrecision   6;

runTimeModifiable yes;

functions {
    luaSimple
    {
        type luaIntegration;

        //        debugLuaWrapper 1; // switching on

        startCode "print('Starting');a=0; print('a is',a)";
        executeCode "a=a+1; print('a:',a)";
        endCode "print('Never been here')";
        //        tolerateExceptions true;
        parallelMasterOnly false;
        isParallelized true;
        //        interactiveAfterExecute true;
        interactiveAfterException true;
    }
    luaOutput
    {
        type luaIntegration;

        startCode "";
        executeCode "print('timeName :',timeName,'outputTime:',outputTime)";
        endCode "print('timeName :',timeName,'outputTime:',outputTime)";
        //        tolerateExceptions true;
        parallelMasterOnly true;
    }
    luaPaths
    {
        type luaIntegration;
        startFile "$FOAM_CASE/printPaths.lua";
        executeCode "print('FOAM_CASE=',os.getenv('FOAM_CASE'));print('Time data:',timeDir)";
        endCode "print('Never been here')";
        //        tolerateExceptions true;
        parallelMasterOnly false;
        isParallelized true;
    }
    addScalar
    {
        type addGlobalVariable;
        outputControl timeStep;
        outputInterval 1;
        globalScope luaVars;
        globalName aScalar;
        valueType scalar;
        value 42;
    }
    addVector
    {
        type addGlobalVariable;
        outputControl timeStep;
        outputInterval 1;
        globalScope luaVars;
        globalName aVector;
        valueType vector;
        value (1 2 3);
    }
    luaGetGlobals
    {
        type luaIntegration;
        swakToLuaNamespaces ( luaVars );
        startCode "print('Start:',aVector,aScalar);newTime=0;newVector={x=0,y=0,z=0};newBool=true";
        executeCode "print('Running:',runTime+aScalar+aVector.x);newTime=aScalar*runTime;newVector={x=runTime,y=-runTime,z=1};newBool=false;newTable={foo=1,bar=3}";
        // executeCode "print('not implemented .... yet')";
        endCode "print('Never been here')";
        //        tolerateExceptions true;
        luaToSwakNamespace testLua;
        luaToSwakVariables (
            newTime
            newVector
            newBool
            notHere
            newTable
        );
        parallelMasterOnly false;
        isParallelized true;
        interactiveAfterException true;
        //        interactiveAfterExecute true;
    }
    checkSingleValue {
        type swakExpression;
        verbose true;
        valueType internalField;
        accumulations (
            min
            max
        );
        globalScopes (
            testLua
        );
        expression "newTime";
    }
    checkSingleValue2 {
        $checkSingleValue;
        expression "newBool";
    }
    checkSingleValue3 {
        $checkSingleValue;
        expression "newVector";
    }
    luaDeltaT {
        type setDeltaTWithLua;
        parallelMasterOnly true;
        deltaTCode "return 0.005*(1+0.5*math.sin(20*runTime))";
        initCode "";
    }
    luaEndTime {
        type setEndTimeWithLua;
        parallelMasterOnly false;
        isParallelized true;
        endTimeCode "return 0.5+0.25*math.sqrt(runTime)";
        initCode "";
    }
    luaDynamic {
        type dynamicFunctionObjectListProxy;
        readDuringConstruction true;
        dictionaryProvider stdoutFromLuaScriptProvider;
        parallelMasterOnly true;
        scriptFile "$FOAM_CASE/printFO.lua";
    }
    luaDynamic2 {
        $luaDynamic;
        parallelMasterOnly false;
        isParallelized true;
    }
    writeIfLua {
        type writeIfLua;
        parallelMasterOnly false;
        isParallelized true;
        initCode "import math";
        writeControlMode timesteps;
        cooldownMode timesteps;
        storeAndWritePreviousState true;
        writeTimesteps 3;
        cooldownTimesteps 15;
        numberOfTimestepsToStore 2;
        initVariablesCode "";
        startWriteCode "return True";
    }
    endEarly {
        type writeAndEndLua;
        parallelMasterOnly false;
        isParallelized true;
        initCode "";
        conditionCode "return runTime>0.15";
        //        conditionCode "return 2>1";
        interactiveAfterException true;
    }
}

libs (
    "libgroovyBC.so"
    "libswakLuaIntegration.so"
    "libswakFunctionObjects.so"
    "libsimpleSwakFunctionObjects.so"
);

// ************************************************************************* //
