/*--------------------------------*- C++ -*----------------------------------*\
| =========                 |                                                 |
| \\      /  F ield         | OpenFOAM: The Open Source CFD Toolbox           |
|  \\    /   O peration     | Version:  v1906                                 |
|   \\  /    A nd           | Web:      www.OpenFOAM.com                      |
|    \\/     M anipulation  |                                                 |
\*---------------------------------------------------------------------------*/
FoamFile
{
    version     2.0;
    format      ascii;
    class       volScalarField;
    location    "0";
    object      epsilon;
}
// * * * * * * * * * * * * * * * * * * * * * * * * * * * * * * * * * * * * * //

dimensions      [0 2 -3 0 0 0 0];

internalField   uniform 0.125;

boundaryField
{
    inlet
    {
        type            fixedValue;
        value           uniform 0.125;
    }
    outlet
    {
        type            zeroGradient;
    }
    upperWall
    {
        type            epsilonWallFunction;
        value           uniform 0.125;
        Cmu             0.09;
        kappa           0.41;
        E               9.8;
    }
    lowerWall
    {
        type            epsilonWallFunction;
        value           uniform 0.125;
        Cmu             0.09;
        kappa           0.41;
        E               9.8;
    }
    body
    {
        type            epsilonWallFunction;
        value           uniform 0.125;
        Cmu             0.09;
        kappa           0.41;
        E               9.8;
    }
    frontAndBack
    {
        type            empty;
    }
}


// ************************************************************************* //
