FoamFile
{
    version         2.0;
    format          ascii;

    root            "/.automount/werner/Werner/bgschaid/bgschaid-foamStuff/DepositionTests";
    case            "neutralTest";
    instance        "system";
    local           "";

    class           dictionary;
    object          funkySetFieldsDict;
}

additionalMeshes (
//		 region0
);

offsetSpecifications {
		     inlet1 {
		      	 mode specifyAll;
//		      	 mode autoTranspose;
		         transposeFirst  ( -0.05 0 0 );
                         scaleBeforeRotation (1 1 1);
                         rotationFrom (1 0 0);
                         rotationTo (0.7071 0.7071 0);
                         scaleAfterRotation (1 2 1);
                         transposeAfter ( 0.05 0.25 0);
		     }
		     inlet2 {
//		      	 mode specifyAll;
		      	 mode autoTranspose;
		         transposeFirst  ( -0.25 0 -0.05 );
                         scaleBeforeRotation (1 1 1);
                         rotationFrom (1 0 0);
                         rotationTo (-1 0 0);
                         scaleAfterRotation (1 1 1);
                         transposeAfter ( 0.05 0.5 0.05);
		     }
		     inlet3 {
		      	 mode specifyAll;
		         transposeFirst  ( -0.4 -0.05 0 );
                         scaleBeforeRotation (1 1 1);
                         rotationFrom (0 1 0);
                         rotationTo (-1 0 0);
                         scaleAfterRotation (1 1 1);
                         transposeAfter ( 0.25 0.5 0);
		     }
}
