/*--------------------------------*- C++ -*----------------------------------*\
| =========                 |                                                 |
| \\      /  F ield         | OpenFOAM: The Open Source CFD Toolbox           |
|  \\    /   O peration     | Version:  1.7.1                                 |
|   \\  /    A nd           | Web:      www.OpenFOAM.com                      |
|    \\/     M anipulation  |                                                 |
\*---------------------------------------------------------------------------*/
FoamFile
{
    version     2.0;
    format      ascii;
    class       dictionary;
    location    "system";
    object      controlDict;
}
// * * * * * * * * * * * * * * * * * * * * * * * * * * * * * * * * * * * * * //

application     interFoam;

startFrom       latestTime;

startTime       0;

stopAt          endTime;

endTime         2.5;

// deltaT          0.002;
deltaT          0.01;

writeControl    adjustableRunTime;

writeInterval   0.1;

purgeWrite      0;

writeFormat     ascii;

writePrecision  6;

writeCompression compressed;

timeFormat      general;

timePrecision   6;

runTimeModifiable yes;

adjustTimeStep  yes;

maxCo           0.2;
maxAlphaCo      0.2;

maxDeltaT       1;

libs (
    "libgroovyBC.so"
    "libsimpleSwakFunctionObjects.so"
    "libswakVelocityFunctionPlugin.so"
);

functions {
    var1Val {
        type patchExpression;
        patches (
            inlet1
            outlet1
            inlet2
            outlet2
            inlet3
            outlet3
        );
        expression "T";
        verbose true;
        accumulations (
            min
            max
            average
        );
    }
}

// ************************************************************************* //
