/*--------------------------------*- C++ -*----------------------------------*\
| =========                 |                                                 |
| \\      /  F ield         | OpenFOAM: The Open Source CFD Toolbox           |
|  \\    /   O peration     | Version:  v1906                                 |
|   \\  /    A nd           | Web:      www.OpenFOAM.com                      |
|    \\/     M anipulation  |                                                 |
\*---------------------------------------------------------------------------*/
FoamFile
{
    version     2.0;
    format      ascii;
    class       volVectorField;
    object      D;
}
// * * * * * * * * * * * * * * * * * * * * * * * * * * * * * * * * * * * * * //

dimensions      [0 1 0 0 0 0 0];

internalField   uniform (0 0 0);

boundaryField
{
    left
    {
        type            symmetryPlane;
        // type fixedValue;
        // value $internalField;
    }
    right
    {
        //        type            zeroGradient;
        type            tractionDisplacement;
        traction        uniform (0 0 0);
        pressure        uniform 0;
        value           uniform (0 0 0);
    }
    down
    {
        type            symmetryPlane;
        // type fixedValue;
        // value $internalField;
    }
    up
    {
        type            groovyTractionDisplacement;
        traction        uniform (0 0 0);
        pressure        uniform 0;
        value           uniform (0 0 0);
        tractionExpression "10000*min(0.1*time(),1)*mappedInternal(U)";
        pressureExpression "min(0.1*time(),1)*(mapped(p)-1e5)";
    }
    hole
    {
        type            tractionDisplacement;
        traction        uniform (0 0 0);
        pressure        uniform 0;
        value           uniform (0 0 0);
    }
    frontAndBack
    {
        type            empty;
    }
}

// ************************************************************************* //
