/*--------------------------------*- C++ -*----------------------------------*\
| =========                 |                                                 |
| \\      /  F ield         | OpenFOAM: The Open Source CFD Toolbox           |
|  \\    /   O peration     | Version:  2.2.0                                 |
|   \\  /    A nd           | Web:      www.OpenFOAM.org                      |
|    \\/     M anipulation  |                                                 |
\*---------------------------------------------------------------------------*/
FoamFile
{
    version     2.0;
    format      ascii;
    class       dictionary;
    object      blockMeshDict;
}
// * * * * * * * * * * * * * * * * * * * * * * * * * * * * * * * * * * * * * //

convertToMeters 1.0;

vertices
(

    (-0.5    0.0     0)
    ( 0.5    0.0     0)
    ( 0.5    0.0     5)
    (-0.5    0.0     5)
    (-0.5    0.5     0)
    ( 0.5    0.5     0)
    ( 0.5    0.5     5)
    (-0.5    0.5     5)
    (-5      0.0     0)
    (-5      0.0     5)
    (-5      0.5     0)
    (-5      0.5     5)
    ( 5      0.0     0)
    ( 5      0.0     5)
    ( 5      0.5     0)
    ( 5      0.5     5)
);

//          7 ---------- 6
//         /|           /|
//        / |          / |   z
//       3 ---------- 2  |   ^
//       |  |         |  |   |   y
//       |  4 --------|- 5   |  /
//       | /          | /    | /
//       |/           |/     |/
//       0 ---------- 1      -----> x
blocks
(
    hex (0 1 5 4 3 2 6 7) (25 1 125) simpleGrading (1 1 1)
    hex (8 0 4 10 9 3 7 11) (100 1 125) simpleGrading (1 1 1)
    hex (1 12 14 5 2 13 15 6) (100 1 125) simpleGrading (1 1 1)
);

edges
(
);

boundary
(
    top
    {
        type patch;
        faces
        (
            (3 2 6 7)
            (9 3 7 11)
	  (2 13 15 6)
        );
    }

    bottom
    {
        type patch;
        faces
        (
            (1 0 4 5)
        );
    }

    walls
    {
        type wall;
        faces
        (
            (12 14 15 13)
            (8 9 11 10)
        );
    }
    
    floor
    {
        type wall;
        faces
        (
             (10 8 0 4)
	  (1 12 14 5)
        );
    }
    frontBack
    {
        type empty;
        faces
        (
            (0 1 2 3)
            (7 6 5 4)
	  (10 4 7 11)
            (8 0 3 9)
	  (1 12 13 2)
            (5 14 15 6)
        );
    }
);

// ************************************************************************* //
