/*--------------------------------*- C++ -*----------------------------------*\
| =========                 |                                                 |
| \\      /  F ield         | OpenFOAM: The Open Source CFD Toolbox           |
|  \\    /   O peration     | Version:  2.2.x                                 |
|   \\  /    A nd           | Web:      www.OpenFOAM.org                      |
|    \\/     M anipulation  |                                                 |
\*---------------------------------------------------------------------------*/
FoamFile
{
    version     2.0;
    format      ascii;
    class       polyBoundaryMesh;
    location    "constant/polyMesh";
    object      boundary;
}
// * * * * * * * * * * * * * * * * * * * * * * * * * * * * * * * * * * * * * //

4
(
    atmosphere
    {
        type            patch;
        nFaces          2304;
        startFace       139648;
    }
    sides
    {
        type            patch;
        nFaces          2048;
        startFace       141952;
    }
    spill
    {
        type            patch;
        nFaces          1536;
        startFace       144000;
    }
    floor
    {
        type            wall;
        nFaces          3584;
        startFace       145536;
    }
)

// ************************************************************************* //
