/*--------------------------------*- C++ -*----------------------------------*\
| =========                 |                                                 |
| \\      /  F ield         | OpenFOAM: The Open Source CFD Toolbox           |
|  \\    /   O peration     | Version:  2.3.x                                 |
|   \\  /    A nd           | Web:      www.OpenFOAM.org                      |
|    \\/     M anipulation  |                                                 |
\*---------------------------------------------------------------------------*/
FoamFile
{
    version     2.0;
    format      ascii;
    class       polyBoundaryMesh;
    location    "constant/polyMesh";
    object      boundary;
}
// * * * * * * * * * * * * * * * * * * * * * * * * * * * * * * * * * * * * * //

3
(
    box
    {
        type            wall;
        inGroups        1(wall);
        nFaces          12000;
        startFace       352272;
    }
    withHole
    {
        type            wall;
        inGroups        1(wall);
        nFaces          3485;
        startFace       364272;
    }
    withBump
    {
        type            wall;
        inGroups        1(wall);
        nFaces          6869;
        startFace       367757;
    }
)

// ************************************************************************* //
