/*--------------------------------*- C++ -*----------------------------------*\
| =========                 |                                                 |
| \\      /  F ield         | OpenFOAM: The Open Source CFD Toolbox           |
|  \\    /   O peration     | Version:  1.7.x                                 |
|   \\  /    A nd           | Web:      www.OpenFOAM.com                      |
|    \\/     M anipulation  |                                                 |
\*---------------------------------------------------------------------------*/
FoamFile
{
    version     2.0;
    format      ascii;
    class       polyBoundaryMesh;
    location    "constant/polyMesh";
    object      boundary;
}
// * * * * * * * * * * * * * * * * * * * * * * * * * * * * * * * * * * * * * //

3
(
    box
    {
        type            wall;
        nFaces          12000;
        startFace       352104;
    }
    withHole_plate
    {
        type            wall;
        nFaces          5302;
        startFace       364104;
    }
    withBump_plate
    {
        type            wall;
        nFaces          7485;
        startFace       369406;
    }
)

// ************************************************************************* //
