/*--------------------------------*- C++ -*----------------------------------*\
| =========                 |                                                 |
| \\      /  F ield         | foam-extend: Open Source CFD                    |
|  \\    /   O peration     | Version:     4.0                                |
|   \\  /    A nd           | Web:         http://www.foam-extend.org         |
|    \\/     M anipulation  |                                                 |
\*---------------------------------------------------------------------------*/
FoamFile
{
    version     2.0;
    format      ascii;
    class       polyBoundaryMesh;
    location    "constant/polyMesh";
    object      boundary;
}
// * * * * * * * * * * * * * * * * * * * * * * * * * * * * * * * * * * * * * //

5
(
    top
    {
        type            wall;
        nFaces          60;
        startFace       2320;
    }
    left
    {
        type            patch;
        nFaces          20;
        startFace       2380;
    }
    right
    {
        type            patch;
        nFaces          20;
        startFace       2400;
    }
    bottom
    {
        type            wall;
        nFaces          60;
        startFace       2420;
    }
    frontAndBack
    {
        type            empty;
        nFaces          2400;
        startFace       2480;
    }
)


// ************************************************************************* //
