// -*- C++ -*-
// File generated by PyFoam - sorry for the ugliness

FoamFile
{
 version 2.0;
 format ascii;
 class volScalarField;
 object T;
}

dimensions [ 0 0 0 1 0 0 0 ];
internalField uniform 300;
boundaryField
{
  forced
  {
    type zeroGradient;
  }
  fixed
  {
    type fixedValue;
    value uniform 300;
  }
  defaultFaces
  {
    type empty;
  }
  other
  {
    type zeroGradient;
  }
  free
  {
    type symmetryPlane;
  }
}
