/*--------------------------------*- C++ -*----------------------------------*\
| =========                 |                                                 |
| \\      /  F ield         | OpenFOAM: The Open Source CFD Toolbox           |
|  \\    /   O peration     | Version:  1.7.1                                 |
|   \\  /    A nd           | Web:      www.OpenFOAM.com                      |
|    \\/     M anipulation  |                                                 |
\*---------------------------------------------------------------------------*/
FoamFile
{
    version     2.0;
    format      ascii;
    class       dictionary;
    location    "system";
    object      controlDict;
}
// * * * * * * * * * * * * * * * * * * * * * * * * * * * * * * * * * * * * * //

application     reactingParcelFoam;

startFrom       startTime;

startTime       0;

stopAt          endTime;

endTime         0.5;

deltaT          1e-03;

writeControl    adjustableRunTime;

writeInterval   0.05;

purgeWrite      0;

writeFormat     ascii;

writePrecision  10;

writeCompression compressed;

timeFormat      general;

timePrecision   6;

runTimeModifiable yes;

adjustTimeStep  yes;

maxCo           0.3;

maxDeltaT       1e-03;

libs (
    "libsimpleSwakFunctionObjects.so"
    "libswakLagrangianParser.so"
);

functions {
    cloudPosition {
        type swakExpression;
        outputControlMode timeStep;
        expression "pos()";
        accumulations (
            min
            max
            average
            weightedAverage
        );
        verbose true;

        valueType cloud;
        cloudName reactingCloud1;
    }
    cloudWeights {
        $cloudPosition;
        expression "weight()";
        //   alternateCloudType Cloud<basicKinematicParcel;
    }
    cloudIds {
        $cloudPosition;
        expression "origId";
    }
    cloudSoftImpact {
        $cloudPosition;
        expression "softImpact";
    }
    cloudCurrentTime {
        $cloudPosition;
        expression "currentTime";
    }
    cloudStepFraction {
        $cloudPosition;
        expression "stepFraction";
    }
    cloudWaterMass {
        $cloudPosition;
        expression "YH2O*mass";
    }
    cloudRelativeMass {
        $cloudPosition;
        expression "mass/mass0";
    }
    cloudTemperatureChange {
        $cloudPosition;
        expression "T-T0";
    }
    cloudTemperatureDiff {
        $cloudPosition;
        expression "T-fluidPhase(T)";
        interpolationSchemes {
            T cellPoint;
        }
    }
    cloudVelocityDifference {
        $cloudPosition;
        expression "U-fluidPhase(U)";
        interpolationSchemes {
            U cellPoint;
        }
    }
    cloudVelocityDifferenceFace {
        $cloudVelocityDifference;
        interpolationSchemes {
            U cellPointFace;
        }
    }
    cloudVelocityDifferenceCell {
        $cloudVelocityDifference;
        interpolationSchemes {
            U cell;
        }
    }
}

// ************************************************************************* //
