/*--------------------------------*- C++ -*----------------------------------*\
| =========                 |                                                 |
| \\      /  F ield         | OpenFOAM Extend Project: Open source CFD        |
|  \\    /   O peration     | Version:  1.6-ext                               |
|   \\  /    A nd           | Web:      www.extend-project.de                 |
|    \\/     M anipulation  |                                                 |
\*---------------------------------------------------------------------------*/
FoamFile
{
    version     2.0;
    format      ascii;
    class       polyBoundaryMesh;
    location    "constant/polyMesh";
    object      boundary;
}
// * * * * * * * * * * * * * * * * * * * * * * * * * * * * * * * * * * * * * //

5
(
    inlet
    {
        type            patch;
        nFaces          20;
        startFace       760;
    }
    bound
    {
        type            wall;
        nFaces          40;
        startFace       780;
    }
    outlet
    {
        type            patch;
        nFaces          20;
        startFace       820;
    }
    bottom
    {
        type            patch;
        nFaces          400;
        startFace       840;
    }
    top
    {
        type            patch;
        nFaces          400;
        startFace       1240;
    }
)

// ************************************************************************* //
