/*--------------------------------*- C++ -*----------------------------------*\
| =========                 |                                                 |
| \\      /  F ield         | OpenFOAM: The Open Source CFD Toolbox           |
|  \\    /   O peration     | Version:  1.7.1                                 |
|   \\  /    A nd           | Web:      www.OpenFOAM.com                      |
|    \\/     M anipulation  |                                                 |
\*---------------------------------------------------------------------------*/
FoamFile
{
    version     2.0;
    format      ascii;
    class       dictionary;
    object      blockMeshDict;
}
// * * * * * * * * * * * * * * * * * * * * * * * * * * * * * * * * * * * * * //

convertToMeters 1e-1;

vertices
(
    (0 0 0)
    (1 0 0)
    (1 5 0)
    (0 5 0)
    (0 0 1)
    (1 0 1)
    (1 5 1)
    (0 5 1)
    (2 0 0)
    (3 0 0)
    (3 5 0)
    (2 5 0)
    (2 0 1)
    (3 0 1)
    (3 5 1)
    (2 5 1)
);

blocks
(
    hex (0 1 2 3 4 5 6 7) (20 100 1) simpleGrading (1 1 1)
    hex (8 9 10 11 12 13 14 15) (20 100 1) simpleGrading (1 1 1)
);

edges
(
);

boundary
(
    inlet1
    {
        type            patch;
        faces (
            (1 5 4 0)
        );
    }
    inlet2
    {
        type            mappedPatch;
        offset          ( -0.2 0.5 0 );
        sampleRegion    region0;
        sampleMode      nearestPatchFace;
        samplePatch     outlet1;
        faces (
            (9 13 12 8)
        );
    }
    outlet1
    {
        type patch;
        faces (
            (3 7 6 2)
        );
    }
    outlet2
    {
        type patch;
        faces (
            (11 15 14 10)
        );
    }
    walls
    {
        type wall;
        faces (
            (0 4 7 3)
            (2 6 5 1)
            (8 12 15 11)
            (10 14 13 9)
        );
    }
    frontAndBack
    {
        type empty;
        faces (
            (0 3 2 1)
            (4 5 6 7)
            (8 11 10 9)
            (12 13 14 15)
        );
    }
);

mergePatchPairs
(
);


// ************************************************************************* //
