/*--------------------------------*- C++ -*----------------------------------*\
| =========                 |                                                 |
| \\      /  F ield         | OpenFOAM: The Open Source CFD Toolbox           |
|  \\    /   O peration     | Version:  v1606+                                |
|   \\  /    A nd           | Web:      www.OpenFOAM.com                      |
|    \\/     M anipulation  |                                                 |
\*---------------------------------------------------------------------------*/
FoamFile
{
    version     2.0;
    format      ascii;
    class       polyBoundaryMesh;
    location    "constant/polyMesh";
    object      boundary;
}
// * * * * * * * * * * * * * * * * * * * * * * * * * * * * * * * * * * * * * //

5
(
    outlet
    {
        type            wall;
        inGroups        1(wall);
        nFaces          25;
        startFace       300;
    }
    inlet
    {
        type            wall;
        inGroups        1(wall);
        nFaces          25;
        startFace       325;
    }
    walls
    {
        type            wall;
        inGroups        1(wall);
        nFaces          50;
        startFace       350;
    }
    back
    {
        type            symmetryPlane;
        inGroups        1(symmetryPlane);
        nFaces          25;
        startFace       400;
    }
    front
    {
        type            symmetryPlane;
        inGroups        1(symmetryPlane);
        nFaces          25;
        startFace       425;
    }
)

// ************************************************************************* //
