FoamFile
{
    version         2.0;
    format          ascii;

    root            "/.automount/werner/Werner/bgschaid/bgschaid-foamStuff/DepositionTests";
    case            "neutralTest";
    instance        "system";
    local           "";

    class           dictionary;
    object          funkySetFieldsDict;
}

additionalMeshes (
//		 region0
);

offsetSpecifications {
		     inlet2 {
		     }
		     outlet1 {
		     }
}
