/*--------------------------------*- C++ -*----------------------------------*\
| =========                 |                                                 |
| \\      /  F ield         | OpenFOAM: The Open Source CFD Toolbox           |
|  \\    /   O peration     | Version:  1.7.x                                 |
|   \\  /    A nd           | Web:      www.OpenFOAM.com                      |
|    \\/     M anipulation  |                                                 |
\*---------------------------------------------------------------------------*/
FoamFile
{
    version     2.0;
    format      ascii;
    class       scalarField;
    location    "0.1";
    object      d;
}
// * * * * * * * * * * * * * * * * * * * * * * * * * * * * * * * * * * * * * //


950
(
0.000843076
5.16786e-05
0.000762972
0.000594678
0.000953311
0.000255759
0.000640956
0.000594634
0.000896527
0.000904357
0.000964336
0.000889892
0.000332087
0.000525894
0.000677034
0.000822603
0.000695651
0.000711921
0.000501243
0.000296107
0.000591287
0.000134147
0.000771933
0.000406839
0.000675585
0.00061357
0.00030403
0.000811672
0.000947988
0.000400004
0.000918251
0.000347679
0.000987588
0.000567285
0.000589048
0.000998445
0.000674877
0.000248311
0.000866898
0.000855818
0.00038219
0.000291125
0.000892629
0.000445178
0.000981567
5.43071e-05
0.000505285
0.000872352
0.000261195
0.000332311
0.0004788
0.000226711
0.000380719
0.000984938
0.000561188
0.000632223
0.00038859
0.000194068
7.0997e-05
0.000368975
0.000452306
0.000742632
5.23486e-05
0.000704914
9.69908e-05
0.000825086
0.000876491
0.000171542
0.00040103
0.000222021
0.000894801
0.000616883
0.000301559
0.000379916
0.000903149
0.000858172
0.000704841
0.000165707
0.000578513
0.000684391
0.000567919
0.000766902
0.000323388
6.37106e-05
0.000800104
0.000150805
0.000398556
0.000966803
0.000977693
0.000864372
0.000136884
0.000678535
0.000147912
0.000165369
0.000835067
0.000274747
0.000191008
0.000967864
0.0009586
0.00039392
0.000311891
0.000434804
0.000796062
0.000550622
0.000814245
0.000265831
0.000316475
0.000740664
0.000482605
0.000101655
8.9842e-05
0.000428281
0.000533467
0.000445827
0.000506866
0.000504659
0.000724402
0.000509197
0.000880979
0.000215107
0.000551036
5.15581e-05
0.000271514
0.000491906
7.94531e-05
0.000272217
0.000383242
0.000791116
0.000795562
0.000756702
0.000833229
0.000433478
0.000202559
0.000325235
0.000242562
0.000655054
0.000135766
0.000117362
0.000863188
0.000957902
5.57234e-05
0.00071409
0.000235405
0.000619417
0.000550263
0.00076018
0.000714699
0.000558159
9.71555e-05
0.000746914
0.000437294
0.000626097
0.000780857
0.000134289
0.000191622
0.000377597
0.000847253
0.000957906
0.000184415
0.000993045
0.000830955
0.000842104
0.00063562
0.000303147
0.000921838
0.000369983
0.000813982
0.000255339
0.000849454
0.000655278
0.000880014
0.00083026
0.000770914
0.000447651
0.000291689
0.000590465
0.000743727
0.000182182
0.000444473
0.000214689
0.000576907
0.000224899
0.000979214
0.000430274
0.000268697
0.000997393
0.000149949
0.000712541
0.000183454
9.82351e-05
0.000654034
0.000133175
5.85058e-05
0.000154853
8.55325e-05
0.000664923
0.000638975
0.000903042
0.000104806
0.000324036
0.000132361
0.000901403
0.000279049
0.000669741
0.000660243
0.00030001
0.000988843
0.000170286
0.000961806
0.000277198
0.000221321
0.00059498
0.000774112
0.000801019
0.000582348
0.000720018
0.000298025
0.000100193
0.000518336
0.000569796
0.000247465
0.000663961
0.000681815
0.000328872
0.000504999
0.000263033
8.19926e-05
0.000892543
0.000898638
0.000556088
0.000720616
0.000511882
0.000417437
9.08188e-05
0.000501675
0.000920876
0.000363934
0.000832477
0.000504049
0.000290038
0.000941767
0.00088344
0.000124166
0.000942868
0.000861699
0.000272321
0.000277477
0.000453618
0.000143805
0.00090674
0.000715347
0.000369804
0.000529036
0.000569612
0.000305434
0.000947645
0.000379017
0.000427056
0.000914164
0.000548126
0.000568434
0.000992235
0.000384241
0.000734652
0.000347421
0.000636029
0.000589933
0.000751192
0.000991415
0.000350604
0.000223112
0.000807503
0.000783941
0.000159466
0.000663299
0.000207728
0.000916717
0.000756055
0.000985447
0.000688816
0.000733942
0.000965359
0.000196959
0.000639662
0.000475118
0.000807161
0.000359986
0.000126138
0.00021668
0.000656292
0.000847689
0.000904451
0.00026902
0.000621736
0.000358641
0.00057605
6.70847e-05
0.000980426
0.000218588
0.00022616
0.000426606
0.000563015
0.000781398
0.000165317
0.000372976
0.000761202
0.000831165
0.000916056
0.000615703
0.000530974
0.000697101
0.000387342
0.000856137
0.000974034
0.000530952
0.000782812
0.000281102
0.000426781
0.00025417
0.000664812
0.000430174
0.000114415
0.00064004
0.000974562
0.00071457
0.000889593
0.000820085
0.000398525
0.000138588
0.00084068
0.000861434
0.000480651
0.000124892
0.000106566
6.03024e-05
0.000928971
0.000697319
0.000808802
0.000137694
0.000891667
0.000636155
0.000271356
0.000758023
0.00078572
0.000533246
0.000520619
0.000324495
0.000460607
0.000602569
7.13722e-05
0.000495494
0.000738042
0.000340754
0.000317318
0.000180144
0.000892396
0.00094204
0.000497957
0.000913879
0.000499729
0.00039839
0.000197771
0.000270246
0.000620946
0.000992377
0.000796102
0.000419964
0.000192777
0.000100245
0.000624945
0.000956742
0.000974873
0.000641245
0.000463877
0.000689393
0.00077371
0.000385229
7.57284e-05
0.000766494
0.00021787
0.000872221
0.000886488
0.000735692
8.01116e-05
0.000532239
0.000551424
0.000848962
0.000234723
0.000820815
0.000312797
0.000892516
0.000237828
0.000662391
0.000356894
0.000796531
0.000576824
6.21933e-05
9.63291e-05
0.000670748
0.000563241
0.000858513
7.73022e-05
0.000723012
0.000944919
0.000698827
0.00068936
9.10794e-05
0.000728364
0.000572239
0.000227591
0.000254132
9.19201e-05
0.000904723
0.000483913
0.000669265
0.000438737
0.000973087
0.000884438
0.000660522
0.000400436
0.000974816
0.000154212
0.000165222
0.00054122
0.000650352
0.000750295
0.000349989
0.00055431
0.000331978
0.000862842
0.000685549
0.000267284
0.000888319
0.000818676
5.03147e-05
0.000509953
0.000252232
0.000196798
0.000552767
0.00068581
0.000371785
0.000368377
0.000406336
0.000759743
0.000416229
0.000568842
0.000609018
0.00048378
0.000743327
0.000973844
0.000216775
0.000455073
0.000379604
0.000110395
0.000539624
0.000778636
0.000943872
0.000164768
0.000213964
0.000768266
0.000357738
0.000873744
0.000145402
0.000554396
0.000711911
0.000116324
0.000232904
0.000137301
0.000672664
0.000567528
0.000812602
7.42437e-05
0.000969651
0.000210296
0.000933071
0.000369547
0.000282
0.000504026
0.000659194
0.00036236
0.000331064
0.000919487
0.000378972
0.000533201
0.000626676
0.000118052
0.000463756
0.000203624
0.000116619
0.000814697
0.00031306
8.5096e-05
0.000565812
0.000956954
0.000785211
0.000177286
0.000149323
0.000489843
0.000825616
0.00027564
0.000812389
0.000450888
0.000816883
0.000557409
0.00095171
0.000985764
0.00023549
0.000980498
0.000323181
0.000748064
0.000668822
0.000274874
0.000350858
0.000985982
0.000624083
0.000367426
0.000546723
0.000242388
0.000302981
0.000170011
0.000793973
0.000926352
0.000336911
0.000815225
0.000744462
0.00046093
0.000499639
0.000761398
0.00015947
0.000384479
0.000862915
0.000890486
0.000348919
0.000987801
0.000217188
0.000386965
0.000346179
0.000671042
0.000150827
0.000705268
0.000642645
0.000452278
0.000622696
0.000459421
0.000507883
0.000992113
0.000859367
0.00083509
0.000244135
0.000579249
0.000705381
0.000801399
0.000377118
0.000602478
9.58138e-05
0.000328124
0.000739008
0.00081639
0.000535878
0.00029625
0.000738295
0.00036267
9.59379e-05
0.000478682
0.000512073
0.000539803
0.000469493
0.000379787
0.000435488
0.000629948
0.000474394
0.000197027
0.000968345
0.000994377
0.00049489
0.000506971
0.000703832
0.00094587
0.000740164
0.000364164
0.000754825
0.000280118
0.000315606
0.000627946
0.000542161
0.000133507
0.000189321
0.000484833
0.000124804
0.000119688
0.000452695
0.000969718
0.000133054
8.18429e-05
0.000376047
0.000459599
0.000992389
0.000219622
0.000933199
0.000202543
0.000587263
0.000768223
0.000824785
0.000974388
0.00093792
0.000139444
0.000394614
0.000640218
0.000693519
0.00071462
0.000701164
0.000226086
9.50036e-05
0.0004509
0.000405863
0.000777913
0.000710011
0.000936629
5.38679e-05
0.000958761
0.000654094
0.000617305
0.000495115
0.000985296
0.000705579
0.000607562
0.000548712
0.000915644
0.000997218
0.000176894
0.000565772
0.00092109
0.000488905
0.000258457
0.000380265
0.00061063
0.000307594
0.000495909
0.000853199
0.000867974
0.000809622
0.000411645
0.000176884
0.000212506
0.000376087
0.000750841
0.000668994
0.000110419
0.000703127
0.000167423
0.000677025
0.000937662
0.00096397
0.000399144
0.000113202
0.000675283
0.000622572
0.000576377
0.000941784
0.000445351
0.000755103
0.000992167
0.00042683
0.000274638
0.000853344
0.000273967
0.000129412
0.000638509
0.000721456
0.000253812
0.000392363
9.01365e-05
0.000777992
6.32196e-05
0.000266192
0.000608553
0.000343941
0.000404356
0.000611282
8.99715e-05
0.00056895
0.0008378
0.00067348
0.000621268
0.000481331
0.000566064
0.000628437
0.000621056
0.000182205
0.000637897
0.000485349
0.00096247
0.000216793
0.000200185
0.000347279
0.000759853
0.000945484
0.000731869
0.000998935
0.000810644
0.000192054
0.000375167
0.00038431
0.000224238
0.000562276
0.000395624
0.000919
0.000810669
0.00071779
0.000445204
0.000703273
0.000573846
0.000801463
0.000210109
0.000793468
0.000800984
0.000527601
0.000711982
0.000117661
0.000544141
0.000231345
0.00084463
0.000293056
0.000978207
0.000632194
0.000296912
0.00079175
0.000147319
0.000100161
0.000875699
0.000696239
0.000911252
0.00095823
0.000284409
0.000696193
0.00074964
0.000750503
0.000678561
0.000740209
0.000138376
0.000893169
0.000295946
0.000781
0.000529314
0.00073157
0.000544193
0.000404118
0.000448675
0.000150482
0.000272669
0.00034691
0.000676757
0.00081448
0.000801814
0.000412235
0.000420702
0.000649429
0.000293239
0.00011784
0.000677514
0.000919222
0.000995185
0.000282482
0.00088469
0.000648145
0.000878888
0.000466774
0.000168645
0.000236308
0.000463949
0.000691951
9.62027e-05
0.000732769
0.000788291
0.000156941
0.000645773
0.000291269
0.00031806
0.000378991
0.000838904
6.94397e-05
0.000465019
0.000717953
0.000643351
0.000599135
0.000994561
0.000152702
0.000936996
0.0002136
0.000250622
0.000504215
0.00023837
0.000507846
0.000380112
0.000204083
0.000614411
0.0007583
0.000158173
0.000103999
0.00022658
0.000682396
0.000969281
0.000696066
0.000789646
0.000421726
0.000465756
0.000661008
0.000962674
0.000560205
0.000400366
0.000512683
0.000813165
0.000281454
0.000492915
0.000970266
0.000265529
0.000998534
0.000908313
0.000447554
0.000445587
0.000902247
0.00079777
0.000693889
0.000863813
0.000776974
0.000539927
7.79354e-05
0.00038414
7.93494e-05
0.000596802
0.000338191
0.000277402
0.000225442
0.000318236
0.000491526
0.000432703
0.000520612
0.000118122
0.00034769
0.00010998
0.00048658
6.59708e-05
0.000767633
0.000743451
0.000133782
0.000124036
0.000637227
0.000698579
0.000420417
0.00016224
0.000528502
0.00043114
0.000893031
5.38401e-05
0.000440925
0.000203248
0.000276647
0.000972415
8.54741e-05
0.000225371
0.000546906
0.000848187
0.000383781
0.000145349
6.80065e-05
0.000872323
0.000944927
0.000432673
0.00059386
0.000257557
0.000271721
0.000754215
0.000402447
0.000800244
0.000335343
0.000683814
0.000723361
8.06024e-05
0.000792874
5.31187e-05
0.000570128
0.000223734
0.000232703
0.000963697
0.000420299
0.00048376
0.000682794
0.00055831
0.000546485
0.000876974
0.000571728
0.00029108
0.000184181
0.000137388
0.000586186
0.000222663
0.000118708
0.000884946
0.000731767
0.000597548
0.000158741
0.00044291
0.000872222
0.000145598
0.000360312
0.000243799
0.000638016
0.000680593
0.000555718
0.000142987
0.00049512
0.000273614
0.000829369
0.000640685
0.000138683
0.000742177
0.000901336
0.00013467
0.00097222
0.000231093
0.000963192
0.000935157
0.000860295
0.000121382
0.000218185
0.000227067
0.000248444
0.000310775
0.000839483
0.000817306
0.000831513
0.000931027
0.000686858
0.000709912
0.000728957
0.000805459
0.000384612
0.00086249
0.000908324
0.000431743
0.000245449
0.000215024
0.000951274
0.000898639
0.00061992
0.000656706
7.41417e-05
0.000741679
5.05394e-05
0.000443649
)


// ************************************************************************* //
