/*--------------------------------*- C++ -*----------------------------------*\
| =========                 |                                                 |
| \\      /  F ield         | OpenFOAM: The Open Source CFD Toolbox           |
|  \\    /   O peration     | Version:  1.7.x                                 |
|   \\  /    A nd           | Web:      www.OpenFOAM.com                      |
|    \\/     M anipulation  |                                                 |
\*---------------------------------------------------------------------------*/
FoamFile
{
    version     2.0;
    format      ascii;
    class       polyBoundaryMesh;
    location    "constant/polyMesh";
    object      boundary;
}
// * * * * * * * * * * * * * * * * * * * * * * * * * * * * * * * * * * * * * //

142
(
    frontAndBack
    {
        type            patch;
        nFaces          1057;
        startFace       2627134;
    }
    inlet
    {
        type            patch;
        nFaces          485;
        startFace       2628191;
    }
    outlet
    {
        type            patch;
        nFaces          517;
        startFace       2628676;
    }
    lowerWall
    {
        type            wall;
        nFaces          7882;
        startFace       2629193;
    }
    upperWall
    {
        type            patch;
        nFaces          240;
        startFace       2637075;
    }
    bike1_frt-fairing:001%1
    {
        type            wall;
        nFaces          6407;
        startFace       2637315;
    }
    bike1_windshield:002%2
    {
        type            wall;
        nFaces          50;
        startFace       2643722;
    }
    bike1_rr-wh-rim:005%5
    {
        type            wall;
        nFaces          171;
        startFace       2643772;
    }
    bike1_rr-wh-rim:010%10
    {
        type            wall;
        nFaces          330;
        startFace       2643943;
    }
    bike1_fr-wh-rim:011%11
    {
        type            wall;
        nFaces          483;
        startFace       2644273;
    }
    bike1_fr-wh-brake-disk:012%12
    {
        type            wall;
        nFaces          53;
        startFace       2644756;
    }
    bike1_frame:016-shadow%13
    {
        type            wall;
        nFaces          129;
        startFace       2644809;
    }
    bike1_rear-susp:014%14
    {
        type            wall;
        nFaces          1043;
        startFace       2644938;
    }
    bike1_rear-susp:014-shadow%15
    {
        type            wall;
        nFaces          182;
        startFace       2645981;
    }
    bike1_frame:016%16
    {
        type            wall;
        nFaces          26;
        startFace       2646163;
    }
    bike1_rr-wh-rim:005-shadow%17
    {
        type            wall;
        nFaces          23;
        startFace       2646189;
    }
    bike1_rr-wh-chain-hub:022%22
    {
        type            wall;
        nFaces          100;
        startFace       2646212;
    }
    bike1_rearseat%24
    {
        type            wall;
        nFaces          378;
        startFace       2646312;
    }
    bike1_frt-fairing%25
    {
        type            wall;
        nFaces          619;
        startFace       2646690;
    }
    bike1_windshield%26
    {
        type            wall;
        nFaces          431;
        startFace       2647309;
    }
    bike1_headlights%27
    {
        type            wall;
        nFaces          171;
        startFace       2647740;
    }
    bike1_driversseat%28
    {
        type            wall;
        nFaces          354;
        startFace       2647911;
    }
    bike1_rear-body%29
    {
        type            wall;
        nFaces          2071;
        startFace       2648265;
    }
    bike1_fuel-tank%30
    {
        type            wall;
        nFaces          936;
        startFace       2650336;
    }
    bike1_exhaust%31
    {
        type            wall;
        nFaces          2398;
        startFace       2651272;
    }
    bike1_rr-wh-rim%32
    {
        type            wall;
        nFaces          1342;
        startFace       2653670;
    }
    bike1_fr-mud-guard%33
    {
        type            wall;
        nFaces          749;
        startFace       2655012;
    }
    bike1_fr-wh-rim%34
    {
        type            wall;
        nFaces          609;
        startFace       2655761;
    }
    bike1_fr-wh-brake-disk%35
    {
        type            wall;
        nFaces          518;
        startFace       2656370;
    }
    bike1_fr-brake-caliper%36
    {
        type            wall;
        nFaces          157;
        startFace       2656888;
    }
    bike1_fr-wh-tyre%37
    {
        type            wall;
        nFaces          1124;
        startFace       2657045;
    }
    bike1_hbars%38
    {
        type            wall;
        nFaces          535;
        startFace       2658169;
    }
    bike1_fr-forks%39
    {
        type            wall;
        nFaces          1126;
        startFace       2658704;
    }
    bike1_chain%40
    {
        type            wall;
        nFaces          500;
        startFace       2659830;
    }
    bike1_rr-wh-tyre%41
    {
        type            wall;
        nFaces          1785;
        startFace       2660330;
    }
    bike1_square-dial%42
    {
        type            wall;
        nFaces          6;
        startFace       2662115;
    }
    bike1_round-dial%43
    {
        type            wall;
        nFaces          17;
        startFace       2662121;
    }
    bike1_dial-holder%44
    {
        type            wall;
        nFaces          85;
        startFace       2662138;
    }
    bike1_rear-susp%45
    {
        type            wall;
        nFaces          1678;
        startFace       2662223;
    }
    bike1_rear-brake-lights%46
    {
        type            wall;
        nFaces          55;
        startFace       2663901;
    }
    bike1_rear-light-bracket%47
    {
        type            wall;
        nFaces          152;
        startFace       2663956;
    }
    bike1_frame%48
    {
        type            wall;
        nFaces          1951;
        startFace       2664108;
    }
    bike1_rear-mud-guard%49
    {
        type            wall;
        nFaces          777;
        startFace       2666059;
    }
    bike1_rear-susp-spring-damp%50
    {
        type            wall;
        nFaces          155;
        startFace       2666836;
    }
    bike1_fairing-inner-plate%51
    {
        type            wall;
        nFaces          430;
        startFace       2666991;
    }
    bike1_clutch-housing%52
    {
        type            wall;
        nFaces          849;
        startFace       2667421;
    }
    bike1_radiator%53
    {
        type            wall;
        nFaces          89;
        startFace       2668270;
    }
    bike1_water-pipe%54
    {
        type            wall;
        nFaces          93;
        startFace       2668359;
    }
    bike1_water-pump%55
    {
        type            wall;
        nFaces          72;
        startFace       2668452;
    }
    bike1_engine%56
    {
        type            wall;
        nFaces          2234;
        startFace       2668524;
    }
    bike1_rear-shock-link%57
    {
        type            wall;
        nFaces          29;
        startFace       2670758;
    }
    bike1_rear-brake-fluid-pot-bracket%58
    {
        type            wall;
        nFaces          52;
        startFace       2670787;
    }
    bike1_rear-brake-fluid-pot%59
    {
        type            wall;
        nFaces          56;
        startFace       2670839;
    }
    bike1_footpeg%60
    {
        type            wall;
        nFaces          92;
        startFace       2670895;
    }
    bike1_rr-wh-chain-hub%61
    {
        type            wall;
        nFaces          161;
        startFace       2670987;
    }
    bike1_rear-brake-caliper%62
    {
        type            wall;
        nFaces          121;
        startFace       2671148;
    }
    bike1_rider-helmet%65
    {
        type            wall;
        nFaces          612;
        startFace       2671269;
    }
    bike1_rider-visor%66
    {
        type            wall;
        nFaces          123;
        startFace       2671881;
    }
    bike1_rider-boots%67
    {
        type            wall;
        nFaces          1016;
        startFace       2672004;
    }
    bike1_rider-gloves%68
    {
        type            wall;
        nFaces          307;
        startFace       2673020;
    }
    bike1_rider-body%69
    {
        type            wall;
        nFaces          4506;
        startFace       2673327;
    }
    bike1_frame:0%70
    {
        type            wall;
        nFaces          38;
        startFace       2677833;
    }
    bike1_frt-fairing:001-shadow%74
    {
        type            wall;
        nFaces          1384;
        startFace       2677871;
    }
    bike1_windshield-shadow%75
    {
        type            wall;
        nFaces          97;
        startFace       2679255;
    }
    bike1_fr-mud-guard-shadow%81
    {
        type            wall;
        nFaces          135;
        startFace       2679352;
    }
    bike1_fr-wh-brake-disk-shadow%83
    {
        type            wall;
        nFaces          93;
        startFace       2679487;
    }
    bike1_rear-mud-guard-shadow%84
    {
        type            wall;
        nFaces          162;
        startFace       2679580;
    }
    bike1_rear-susp-spring-damp-shadow%85
    {
        type            wall;
        nFaces          17;
        startFace       2679742;
    }
    bike1_radiator-shadow%86
    {
        type            wall;
        nFaces          16;
        startFace       2679759;
    }
    bike1_rear-shock-link-shadow%87
    {
        type            wall;
        nFaces          3;
        startFace       2679775;
    }
    bike1_rear-brake-fluid-pot-bracket-shadow%88
    {
        type            wall;
        nFaces          8;
        startFace       2679778;
    }
    bike1_rr-wh-chain-hub-shadow%89
    {
        type            wall;
        nFaces          22;
        startFace       2679786;
    }
    bike2_frt-fairing:001%1
    {
        type            wall;
        nFaces          6557;
        startFace       2679808;
    }
    bike2_windshield:002%2
    {
        type            wall;
        nFaces          51;
        startFace       2686365;
    }
    bike2_rr-wh-rim:005%5
    {
        type            wall;
        nFaces          186;
        startFace       2686416;
    }
    bike2_rr-wh-rim:010%10
    {
        type            wall;
        nFaces          718;
        startFace       2686602;
    }
    bike2_fr-wh-rim:011%11
    {
        type            wall;
        nFaces          809;
        startFace       2687320;
    }
    bike2_fr-wh-brake-disk:012%12
    {
        type            wall;
        nFaces          61;
        startFace       2688129;
    }
    bike2_frame:016-shadow%13
    {
        type            wall;
        nFaces          139;
        startFace       2688190;
    }
    bike2_rear-susp:014%14
    {
        type            wall;
        nFaces          1070;
        startFace       2688329;
    }
    bike2_rear-susp:014-shadow%15
    {
        type            wall;
        nFaces          149;
        startFace       2689399;
    }
    bike2_frame:016%16
    {
        type            wall;
        nFaces          21;
        startFace       2689548;
    }
    bike2_rr-wh-rim:005-shadow%17
    {
        type            wall;
        nFaces          26;
        startFace       2689569;
    }
    bike2_rr-wh-chain-hub:022%22
    {
        type            wall;
        nFaces          193;
        startFace       2689595;
    }
    bike2_rearseat%24
    {
        type            wall;
        nFaces          414;
        startFace       2689788;
    }
    bike2_frt-fairing%25
    {
        type            wall;
        nFaces          616;
        startFace       2690202;
    }
    bike2_windshield%26
    {
        type            wall;
        nFaces          468;
        startFace       2690818;
    }
    bike2_headlights%27
    {
        type            wall;
        nFaces          147;
        startFace       2691286;
    }
    bike2_driversseat%28
    {
        type            wall;
        nFaces          355;
        startFace       2691433;
    }
    bike2_rear-body%29
    {
        type            wall;
        nFaces          2189;
        startFace       2691788;
    }
    bike2_fuel-tank%30
    {
        type            wall;
        nFaces          948;
        startFace       2693977;
    }
    bike2_exhaust%31
    {
        type            wall;
        nFaces          2464;
        startFace       2694925;
    }
    bike2_rr-wh-rim%32
    {
        type            wall;
        nFaces          2787;
        startFace       2697389;
    }
    bike2_fr-mud-guard%33
    {
        type            wall;
        nFaces          744;
        startFace       2700176;
    }
    bike2_fr-wh-rim%34
    {
        type            wall;
        nFaces          902;
        startFace       2700920;
    }
    bike2_fr-wh-brake-disk%35
    {
        type            wall;
        nFaces          553;
        startFace       2701822;
    }
    bike2_fr-brake-caliper%36
    {
        type            wall;
        nFaces          156;
        startFace       2702375;
    }
    bike2_fr-wh-tyre%37
    {
        type            wall;
        nFaces          2343;
        startFace       2702531;
    }
    bike2_hbars%38
    {
        type            wall;
        nFaces          557;
        startFace       2704874;
    }
    bike2_fr-forks%39
    {
        type            wall;
        nFaces          1114;
        startFace       2705431;
    }
    bike2_chain%40
    {
        type            wall;
        nFaces          478;
        startFace       2706545;
    }
    bike2_rr-wh-tyre%41
    {
        type            wall;
        nFaces          3368;
        startFace       2707023;
    }
    bike2_square-dial%42
    {
        type            wall;
        nFaces          9;
        startFace       2710391;
    }
    bike2_round-dial%43
    {
        type            wall;
        nFaces          15;
        startFace       2710400;
    }
    bike2_dial-holder%44
    {
        type            wall;
        nFaces          99;
        startFace       2710415;
    }
    bike2_rear-susp%45
    {
        type            wall;
        nFaces          1829;
        startFace       2710514;
    }
    bike2_rear-brake-lights%46
    {
        type            wall;
        nFaces          58;
        startFace       2712343;
    }
    bike2_rear-light-bracket%47
    {
        type            wall;
        nFaces          165;
        startFace       2712401;
    }
    bike2_frame%48
    {
        type            wall;
        nFaces          1911;
        startFace       2712566;
    }
    bike2_rear-mud-guard%49
    {
        type            wall;
        nFaces          783;
        startFace       2714477;
    }
    bike2_rear-susp-spring-damp%50
    {
        type            wall;
        nFaces          128;
        startFace       2715260;
    }
    bike2_fairing-inner-plate%51
    {
        type            wall;
        nFaces          430;
        startFace       2715388;
    }
    bike2_clutch-housing%52
    {
        type            wall;
        nFaces          930;
        startFace       2715818;
    }
    bike2_radiator%53
    {
        type            wall;
        nFaces          45;
        startFace       2716748;
    }
    bike2_water-pipe%54
    {
        type            wall;
        nFaces          106;
        startFace       2716793;
    }
    bike2_water-pump%55
    {
        type            wall;
        nFaces          79;
        startFace       2716899;
    }
    bike2_engine%56
    {
        type            wall;
        nFaces          2407;
        startFace       2716978;
    }
    bike2_rear-shock-link%57
    {
        type            wall;
        nFaces          28;
        startFace       2719385;
    }
    bike2_rear-brake-fluid-pot-bracket%58
    {
        type            wall;
        nFaces          68;
        startFace       2719413;
    }
    bike2_rear-brake-fluid-pot%59
    {
        type            wall;
        nFaces          52;
        startFace       2719481;
    }
    bike2_footpeg%60
    {
        type            wall;
        nFaces          89;
        startFace       2719533;
    }
    bike2_rr-wh-chain-hub%61
    {
        type            wall;
        nFaces          150;
        startFace       2719622;
    }
    bike2_rear-brake-caliper%62
    {
        type            wall;
        nFaces          137;
        startFace       2719772;
    }
    bike2_rider-helmet%65
    {
        type            wall;
        nFaces          482;
        startFace       2719909;
    }
    bike2_rider-visor%66
    {
        type            wall;
        nFaces          115;
        startFace       2720391;
    }
    bike2_rider-boots%67
    {
        type            wall;
        nFaces          1056;
        startFace       2720506;
    }
    bike2_rider-gloves%68
    {
        type            wall;
        nFaces          309;
        startFace       2721562;
    }
    bike2_rider-body%69
    {
        type            wall;
        nFaces          4566;
        startFace       2721871;
    }
    bike2_frame:0%70
    {
        type            wall;
        nFaces          38;
        startFace       2726437;
    }
    bike2_frt-fairing:001-shadow%74
    {
        type            wall;
        nFaces          1330;
        startFace       2726475;
    }
    bike2_windshield-shadow%75
    {
        type            wall;
        nFaces          106;
        startFace       2727805;
    }
    bike2_fr-mud-guard-shadow%81
    {
        type            wall;
        nFaces          146;
        startFace       2727911;
    }
    bike2_fr-wh-brake-disk-shadow%83
    {
        type            wall;
        nFaces          68;
        startFace       2728057;
    }
    bike2_rear-mud-guard-shadow%84
    {
        type            wall;
        nFaces          163;
        startFace       2728125;
    }
    bike2_rear-susp-spring-damp-shadow%85
    {
        type            wall;
        nFaces          14;
        startFace       2728288;
    }
    bike2_radiator-shadow%86
    {
        type            wall;
        nFaces          7;
        startFace       2728302;
    }
    bike2_rear-shock-link-shadow%87
    {
        type            wall;
        nFaces          4;
        startFace       2728309;
    }
    bike2_rear-brake-fluid-pot-bracket-shadow%88
    {
        type            wall;
        nFaces          7;
        startFace       2728313;
    }
    bike2_rr-wh-chain-hub-shadow%89
    {
        type            wall;
        nFaces          28;
        startFace       2728320;
    }
    enterWall_region0
    {
        type            wall;
        nFaces          0;
        startFace       2728348;
    }
    middleWall_avoid
    {
        type            wall;
        nFaces          14128;
        startFace       2728348;
    }
    rampWall_region0
    {
        type            wall;
        nFaces          3013;
        startFace       2742476;
    }
)

// ************************************************************************* //
