/*--------------------------------*- C++ -*----------------------------------*\
| =========                 |                                                 |
| \\      /  F ield         | OpenFOAM: The Open Source CFD Toolbox           |
|  \\    /   O peration     | Version:  5.0                                   |
|   \\  /    A nd           | Web:      www.OpenFOAM.org                      |
|    \\/     M anipulation  |                                                 |
\*---------------------------------------------------------------------------*/
FoamFile
{
    version     2.0;
    format      ascii;
    class       polyBoundaryMesh;
    location    "constant/polyMesh";
    object      boundary;
}
// * * * * * * * * * * * * * * * * * * * * * * * * * * * * * * * * * * * * * //

5
(
    sea
    {
        type            wall;
        inGroups        1(wall);
        nFaces          2541;
        startFace       413469;
    }
    outside
    {
        type            patch;
        nFaces          4360;
        startFace       416010;
    }
    sky
    {
        type            patch;
        nFaces          3600;
        startFace       420370;
    }
    volcano_wall
    {
        type            wall;
        inGroups        1(wall);
        nFaces          9948;
        startFace       423970;
    }
    land
    {
        type            wall;
        inGroups        1(wall);
        nFaces          12405;
        startFace       433918;
    }
)

// ************************************************************************* //
