/*--------------------------------*- C++ -*----------------------------------*\
| =========                 |                                                 |
| \\      /  F ield         | OpenFOAM: The Open Source CFD Toolbox           |
|  \\    /   O peration     | Version:  1.7.x                                 |
|   \\  /    A nd           | Web:      www.OpenFOAM.com                      |
|    \\/     M anipulation  |                                                 |
\*---------------------------------------------------------------------------*/
FoamFile
{
    version     2.0;
    format      ascii;
    class       polyBoundaryMesh;
    location    "constant/polyMesh";
    object      boundary;
}
// * * * * * * * * * * * * * * * * * * * * * * * * * * * * * * * * * * * * * //

6
(
    sea
    {
        type            wall;
        nFaces          1198;
        startFace       246354;
    }
    outside
    {
        type            patch;
        nFaces          3534;
        startFace       247552;
    }
    sky
    {
        type            patch;
        nFaces          1600;
        startFace       251086;
    }
    volcano_wall
    {
        type            wall;
        nFaces          1536;
        startFace       252686;
    }
    volcano_inlet
    {
        type            wall;
        nFaces          68;
        startFace       254222;
    }
    land_region0
    {
        type            wall;
        nFaces          8043;
        startFace       254290;
    }
)

// ************************************************************************* //
