/*--------------------------------*- C++ -*----------------------------------*\
| =========                 |                                                 |
| \\      /  F ield         | OpenFOAM: The Open Source CFD Toolbox           |
|  \\    /   O peration     | Version:  v1806                                 |
|   \\  /    A nd           | Web:      www.OpenFOAM.com                      |
|    \\/     M anipulation  |                                                 |
\*---------------------------------------------------------------------------*/
FoamFile
{
    version     2.0;
    format      ascii;
    class       polyBoundaryMesh;
    location    "constant/polyMesh";
    object      boundary;
}
// * * * * * * * * * * * * * * * * * * * * * * * * * * * * * * * * * * * * * //

6
(
    sea
    {
        type            wall;
        inGroups        1(wall);
        nFaces          1197;
        startFace       360393;
    }
    outside
    {
        type            patch;
        nFaces          4394;
        startFace       361590;
    }
    sky
    {
        type            patch;
        nFaces          3600;
        startFace       365984;
    }
    volcano_wall
    {
        type            wall;
        inGroups        1(wall);
        nFaces          5177;
        startFace       369584;
    }
    volcano_inlet
    {
        type            wall;
        inGroups        1(wall);
        nFaces          55;
        startFace       374761;
    }
    land
    {
        type            wall;
        inGroups        1(wall);
        nFaces          11532;
        startFace       374816;
    }
)

// ************************************************************************* //
