/*--------------------------------*- C++ -*----------------------------------*\
| =========                 |                                                 |
| \\      /  F ield         | OpenFOAM: The Open Source CFD Toolbox           |
|  \\    /   O peration     | Version:  5.0                                   |
|   \\  /    A nd           | Web:      www.OpenFOAM.org                      |
|    \\/     M anipulation  |                                                 |
\*---------------------------------------------------------------------------*/
FoamFile
{
    version     2.0;
    format      ascii;
    class       polyBoundaryMesh;
    location    "constant/polyMesh";
    object      boundary;
}
// * * * * * * * * * * * * * * * * * * * * * * * * * * * * * * * * * * * * * //

3
(
    sea
    {
        type            wall;
        inGroups        1(wall);
        nFaces          3600;
        startFace       210000;
    }
    outside
    {
        type            patch;
        nFaces          4800;
        startFace       213600;
    }
    sky
    {
        type            patch;
        nFaces          3600;
        startFace       218400;
    }
)

// ************************************************************************* //
