/*--------------------------------*- C++ -*----------------------------------*\
| =========                 |                                                 |
| \\      /  F ield         | OpenFOAM: The Open Source CFD Toolbox           |
|  \\    /   O peration     | Version:  1.7.x                                 |
|   \\  /    A nd           | Web:      www.OpenFOAM.com                      |
|    \\/     M anipulation  |                                                 |
\*---------------------------------------------------------------------------*/
FoamFile
{
    version     2.0;
    format      ascii;
    class       polyBoundaryMesh;
    location    "constant/polyMesh";
    object      boundary;
}
// * * * * * * * * * * * * * * * * * * * * * * * * * * * * * * * * * * * * * //

6
(
    sea
    {
        type            wall;
        nFaces          2325;
        startFace       635625;
    }
    outside
    {
        type            patch;
        nFaces          4516;
        startFace       637950;
    }
    sky
    {
        type            patch;
        nFaces          1600;
        startFace       642466;
    }
    volcano_wall
    {
        type            wall;
        nFaces          22704;
        startFace       644066;
    }
    volcano_inlet
    {
        type            wall;
        nFaces          241;
        startFace       666770;
    }
    land_region0
    {
        type            wall;
        nFaces          32652;
        startFace       667011;
    }
)

// ************************************************************************* //
