/*--------------------------------*- C++ -*----------------------------------*\
  =========                 |
  \\      /  F ield         | OpenFOAM: The Open Source CFD Toolbox
   \\    /   O peration     | Website:  https://openfoam.org
    \\  /    A nd           | Version:  6
     \\/     M anipulation  |
\*---------------------------------------------------------------------------*/
FoamFile
{
    version     2.0;
    format      ascii;
    class       polyBoundaryMesh;
    location    "constant/polyMesh";
    object      boundary;
}
// * * * * * * * * * * * * * * * * * * * * * * * * * * * * * * * * * * * * * //

3
(
    sea
    {
        type            wall;
        inGroups        1(wall);
        nFaces          3600;
        startFace       210000;
    }
    outside
    {
        type            patch;
        nFaces          4800;
        startFace       213600;
    }
    sky
    {
        type            patch;
        nFaces          3600;
        startFace       218400;
    }
)

// ************************************************************************* //
