/*--------------------------------*- C++ -*----------------------------------*\
| =========                 |                                                 |
| \\      /  F ield         | OpenFOAM: The Open Source CFD Toolbox           |
|  \\    /   O peration     | Version:  v1906                                 |
|   \\  /    A nd           | Web:      www.OpenFOAM.com                      |
|    \\/     M anipulation  |                                                 |
\*---------------------------------------------------------------------------*/
FoamFile
{
    version     2.0;
    format      ascii;
    class       volScalarField;
    object      T;
}
// * * * * * * * * * * * * * * * * * * * * * * * * * * * * * * * * * * * * * //

dimensions      [0 0 0 1 0 0 0];

internalField   uniform 300;

boundaryField
{
    inlet
    {
        type mapped;
        setAverage 0;
        average 300;
        //        type            fixedValue;
        value           uniform 300;
    }

    outlet
    {
        type            inletOutlet;
        inletValue      uniform 300;
        value           uniform 300;
    }

    upperWall
    {
        type            fixedValue;
        value           uniform 300;
    }

    lowerWall
    {
        type            fixedValue;
        value           uniform 300;
    }

    frontAndBack
    {
        type            empty;
    }
}

// ************************************************************************* //
