/*--------------------------------*- C++ -*----------------------------------*\
| =========                 |                                                 |
| \\      /  F ield         | OpenFOAM: The Open Source CFD Toolbox           |
|  \\    /   O peration     | Version:  1.7.x                                 |
|   \\  /    A nd           | Web:      www.OpenFOAM.com                      |
|    \\/     M anipulation  |                                                 |
\*---------------------------------------------------------------------------*/
FoamFile
{
    version     2.0;
    format      ascii;
    class       Cloud<basicKinematicParcel>;
    location    "0.1";
    object      positions;
}
// * * * * * * * * * * * * * * * * * * * * * * * * * * * * * * * * * * * * * //

950
(
(0.0831153 0.0321607 0.005) 376
(0.0993054 0.0864646 0.005) 1039
(0.0847715 0.0321266 0.005) 376
(0.0887698 0.0407898 0.005) 497
(0.078099 0.0283412 0.005) 315
(0.113398 0.0519344 0.005) 622
(0.0796225 0.0391365 0.005) 435
(0.0913085 0.0379927 0.005) 438
(0.0638013 0.0315744 0.005) 372
(0.0717802 0.030045 0.005) 374
(0.0639821 0.028491 0.005) 312
(0.0793703 0.0290409 0.005) 315
(0.105247 0.047089 0.005) 561
(0.0870126 0.0408865 0.005) 497
(0.0833735 0.0349922 0.005) 376
(0.0942371 0.0321669 0.005) 378
(0.0862161 0.0334812 0.005) 377
(0.0869019 0.0331667 0.005) 377
(0.0962239 0.0413046 0.005) 499
(0.104018 0.0471615 0.005) 560
(0.095486 0.0376895 0.005) 439
(0.111347 0.0764965 0.005) 922
(0.0849331 0.0303311 0.005) 376
(0.0998165 0.0436829 0.005) 499
(0.0852446 0.0328545 0.005) 377
(0.0738314 0.0391709 0.005) 434
(0.0997948 0.0457647 0.005) 559
(0.0628768 0.0327622 0.005) 372
(0.077763 0.0254104 0.005) 315
(0.0976153 0.0422327 0.005) 499
(0.0750141 0.0266606 0.005) 315
(0.0982712 0.042867 0.005) 499
(0.0793001 0.0250902 0.005) 315
(0.0831535 0.0380039 0.005) 436
(0.0958611 0.0370917 0.005) 439
(0.0571827 0.0274977 0.005) 311
(0.0931387 0.0337458 0.005) 378
(0.099196 0.0476319 0.005) 559
(0.0761951 0.026721 0.005) 315
(0.0736626 0.029611 0.005) 314
(0.0959899 0.0411797 0.005) 499
(0.0920032 0.0484332 0.005) 558
(0.0911875 0.0288891 0.005) 318
(0.086255 0.0416005 0.005) 497
(0.0737702 0.0240107 0.005) 254
(0.116747 0.0717574 0.005) 863
(0.0852615 0.0365096 0.005) 437
(0.073861 0.0257381 0.005) 314
(0.0934861 0.0459475 0.005) 558
(0.0889047 0.0422402 0.005) 497
(0.0814567 0.0411538 0.005) 496
(0.0911617 0.0486523 0.005) 558
(0.0888126 0.044201 0.005) 497
(0.0748143 0.0251093 0.005) 314
(0.0848888 0.0370346 0.005) 436
(0.0761724 0.0343119 0.005) 375
(0.0835739 0.0410088 0.005) 496
(0.0934717 0.0493255 0.005) 558
(0.107184 0.0713783 0.005) 861
(0.0851984 0.0447586 0.005) 497
(0.0893378 0.0416067 0.005) 497
(0.0727297 0.0310796 0.005) 374
(0.102734 0.0684413 0.005) 800
(0.0709658 0.0332185 0.005) 374
(0.109421 0.0731139 0.005) 861
(0.0661047 0.0296267 0.005) 313
(0.0820671 0.0283724 0.005) 316
(0.0899664 0.0483517 0.005) 557
(0.0803311 0.0432414 0.005) 496
(0.0889053 0.0447541 0.005) 497
(0.0682936 0.0269955 0.005) 313
(0.0811875 0.0328506 0.005) 376
(0.0832518 0.0444751 0.005) 496
(0.079594 0.0411702 0.005) 495
(0.0704393 0.0256774 0.005) 314
(0.0681192 0.0276154 0.005) 313
(0.0816749 0.0311949 0.005) 376
(0.0868928 0.0484199 0.005) 557
(0.0694045 0.0380026 0.005) 433
(0.0623842 0.0354734 0.005) 432
(0.0722663 0.0358225 0.005) 434
(0.0643155 0.0310603 0.005) 372
(0.0787585 0.045664 0.005) 555
(0.0972075 0.054904 0.005) 619
(0.0685792 0.0279793 0.005) 313
(0.100527 0.0591472 0.005) 680
(0.0911968 0.0410586 0.005) 498
(0.0795766 0.025492 0.005) 315
(0.0622839 0.0247133 0.005) 252
(0.0786465 0.0273552 0.005) 315
(0.0858357 0.0485177 0.005) 557
(0.0707157 0.0307495 0.005) 374
(0.0891206 0.0477506 0.005) 557
(0.0839409 0.046679 0.005) 556
(0.0613259 0.027948 0.005) 312
(0.088508 0.0421637 0.005) 497
(0.0817196 0.0444647 0.005) 496
(0.0622881 0.0241813 0.005) 252
(0.0629434 0.0240947 0.005) 252
(0.0720186 0.0388162 0.005) 434
(0.081059 0.0441164 0.005) 496
(0.0723749 0.044093 0.005) 494
(0.0653936 0.0305615 0.005) 373
(0.0750324 0.0373604 0.005) 435
(0.0606311 0.0314152 0.005) 372
(0.0817763 0.0435709 0.005) 496
(0.0812442 0.0412313 0.005) 496
(0.0620769 0.0364392 0.005) 432
(0.0785141 0.0371318 0.005) 435
(0.0838243 0.0476383 0.005) 556
(0.0801526 0.0471503 0.005) 556
(0.0727599 0.0396479 0.005) 434
(0.0690134 0.0362966 0.005) 433
(0.0742649 0.0370057 0.005) 434
(0.0821252 0.0369424 0.005) 436
(0.0740291 0.0351239 0.005) 434
(0.0733887 0.0305216 0.005) 374
(0.068199 0.0351452 0.005) 433
(0.0681332 0.0269415 0.005) 313
(0.0787858 0.042592 0.005) 495
(0.0643175 0.0423649 0.005) 492
(0.105532 0.0694343 0.005) 801
(0.0807746 0.0481833 0.005) 556
(0.0681531 0.0346677 0.005) 373
(0.10004 0.0790093 0.005) 920
(0.0742756 0.0459002 0.005) 554
(0.0706005 0.0398473 0.005) 434
(0.0634694 0.0293374 0.005) 312
(0.0587905 0.0333263 0.005) 371
(0.0667638 0.0288095 0.005) 313
(0.0599069 0.029719 0.005) 311
(0.0770084 0.03821 0.005) 435
(0.0748273 0.0448524 0.005) 494
(0.0844505 0.0443212 0.005) 496
(0.0776002 0.042824 0.005) 495
(0.0627287 0.0322845 0.005) 372
(0.0756669 0.0472898 0.005) 555
(0.0811134 0.053189 0.005) 616
(0.0630731 0.0258946 0.005) 312
(0.0572155 0.0270624 0.005) 311
(0.0929074 0.0652664 0.005) 798
(0.0641892 0.028367 0.005) 312
(0.0838572 0.0461118 0.005) 556
(0.070403 0.0322241 0.005) 374
(0.0692623 0.0315296 0.005) 373
(0.0587493 0.0354852 0.005) 431
(0.0626544 0.0282278 0.005) 312
(0.0759368 0.0338183 0.005) 375
(0.0846461 0.0467928 0.005) 556
(0.0618869 0.0317956 0.005) 372
(0.0660252 0.036359 0.005) 433
(0.0620804 0.0313508 0.005) 372
(0.05946 0.0289622 0.005) 311
(0.0744427 0.0422989 0.005) 494
(0.0705228 0.040427 0.005) 494
(0.0649962 0.0410852 0.005) 492
(0.0581022 0.0280312 0.005) 311
(0.0616524 0.0274102 0.005) 312
(0.0717866 0.0411629 0.005) 494
(0.0542737 0.031837 0.005) 370
(0.0512273 0.0373031 0.005) 430
(0.0589058 0.0280391 0.005) 311
(0.0601221 0.0301763 0.005) 372
(0.0660924 0.0390855 0.005) 433
(0.0570331 0.0336156 0.005) 371
(0.0668664 0.0427559 0.005) 493
(0.0583535 0.0333094 0.005) 371
(0.069255 0.0451911 0.005) 553
(0.0580973 0.0281827 0.005) 311
(0.0593463 0.0375317 0.005) 431
(0.0721206 0.0318592 0.005) 374
(0.0681042 0.0307524 0.005) 373
(0.0707367 0.0325654 0.005) 374
(0.0618409 0.0431584 0.005) 492
(0.0687102 0.0374011 0.005) 433
(0.0615958 0.033357 0.005) 372
(0.0595206 0.027974 0.005) 311
(0.0715238 0.0408948 0.005) 494
(0.0604168 0.0411042 0.005) 492
(0.0698792 0.0411446 0.005) 493
(0.0603873 0.0367915 0.005) 432
(0.0674935 0.0437859 0.005) 493
(0.0553481 0.0311144 0.005) 371
(0.0628567 0.0374643 0.005) 432
(0.0641933 0.0437553 0.005) 492
(0.049304 0.0338657 0.005) 369
(0.0676013 0.0461766 0.005) 553
(0.0711918 0.0328846 0.005) 374
(0.0732376 0.0423573 0.005) 494
(0.0661213 0.0460443 0.005) 553
(0.0683392 0.0330975 0.005) 373
(0.0734838 0.043009 0.005) 494
(0.0715012 0.0510537 0.005) 614
(0.0714799 0.0432148 0.005) 494
(0.0715401 0.0436032 0.005) 494
(0.0650082 0.0328741 0.005) 373
(0.0557072 0.0394346 0.005) 431
(0.0732283 0.0320549 0.005) 374
(0.0679433 0.0424211 0.005) 493
(0.064054 0.0359398 0.005) 432
(0.0957199 0.0737985 0.005) 859
(0.0577596 0.0315208 0.005) 371
(0.06137 0.040006 0.005) 492
(0.051378 0.0411372 0.005) 490
(0.0513489 0.041284 0.005) 490
(0.0622136 0.0401006 0.005) 492
(0.0554997 0.0307193 0.005) 371
(0.0696889 0.0465399 0.005) 553
(0.0610548 0.0328268 0.005) 372
(0.0620546 0.0414449 0.005) 492
(0.0619421 0.0398425 0.005) 432
(0.0524971 0.0429778 0.005) 490
(0.0549097 0.0342638 0.005) 370
(0.0546242 0.0311306 0.005) 370
(0.0634787 0.0350209 0.005) 432
(0.0550633 0.0316381 0.005) 371
(0.0617104 0.0376807 0.005) 432
(0.0601595 0.0392657 0.005) 432
(0.0568511 0.0415122 0.005) 491
(0.0570148 0.0340691 0.005) 371
(0.0703381 0.0519576 0.005) 614
(0.0551302 0.0346669 0.005) 371
(0.0543073 0.0389814 0.005) 430
(0.0585475 0.0385005 0.005) 431
(0.0553093 0.0371165 0.005) 431
(0.0554235 0.0352715 0.005) 431
(0.067372 0.0457322 0.005) 553
(0.0474219 0.037415 0.005) 429
(0.0519761 0.0345791 0.005) 370
(0.0562738 0.0337662 0.005) 371
(0.0511521 0.0390118 0.005) 430
(0.0585812 0.0342675 0.005) 371
(0.0552548 0.0429265 0.005) 491
(0.070835 0.0526715 0.005) 614
(0.057815 0.0341019 0.005) 371
(0.0493849 0.0349375 0.005) 369
(0.0584462 0.0348306 0.005) 371
(0.0545924 0.0304289 0.005) 370
(0.0608137 0.0338019 0.005) 372
(0.0598027 0.0348343 0.005) 371
(0.0463339 0.0365275 0.005) 429
(0.0536923 0.0299514 0.005) 310
(0.0690345 0.0545288 0.005) 613
(0.0548833 0.0308069 0.005) 370
(0.0685177 0.034617 0.005) 373
(0.0581797 0.0448825 0.005) 491
(0.0590316 0.0350067 0.005) 431
(0.0557538 0.0396143 0.005) 431
(0.0581138 0.0463063 0.005) 551
(0.0492127 0.0353749 0.005) 429
(0.0499125 0.0388298 0.005) 429
(0.0597881 0.0470087 0.005) 551
(0.0496086 0.0413495 0.005) 489
(0.053512 0.0393346 0.005) 430
(0.0636711 0.0453318 0.005) 552
(0.0467325 0.0362885 0.005) 429
(0.057852 0.0439004 0.005) 491
(0.061147 0.0435974 0.005) 492
(0.0463181 0.0393385 0.005) 429
(0.0511486 0.0400934 0.005) 490
(0.0533365 0.0387599 0.005) 430
(0.0460401 0.0356058 0.005) 429
(0.063065 0.0420449 0.005) 492
(0.065275 0.0401672 0.005) 493
(0.0563678 0.0460146 0.005) 551
(0.0526346 0.0375206 0.005) 430
(0.0493768 0.0409027 0.005) 489
(0.0618372 0.0373578 0.005) 432
(0.0561129 0.0344006 0.005) 371
(0.0533871 0.0413672 0.005) 490
(0.0799272 0.0586044 0.005) 675
(0.0456765 0.041196 0.005) 489
(0.0536175 0.0359775 0.005) 430
(0.0652356 0.0516194 0.005) 613
(0.066022 0.0397899 0.005) 433
(0.0572617 0.0447166 0.005) 491
(0.0440583 0.0399981 0.005) 428
(0.0629315 0.0383519 0.005) 432
(0.0500379 0.0351217 0.005) 430
(0.0630615 0.0379419 0.005) 432
(0.0596463 0.0357655 0.005) 431
(0.0416631 0.0405114 0.005) 488
(0.0635998 0.045381 0.005) 552
(0.0488157 0.0369686 0.005) 429
(0.0515536 0.0387612 0.005) 430
(0.0547339 0.0354586 0.005) 430
(0.0538589 0.0396157 0.005) 430
(0.0633185 0.0459837 0.005) 552
(0.0625692 0.0442992 0.005) 492
(0.0480056 0.0405295 0.005) 489
(0.0531407 0.0349724 0.005) 370
(0.0560507 0.0348908 0.005) 371
(0.0618344 0.0415154 0.005) 492
(0.0497453 0.0366311 0.005) 429
(0.0619732 0.0394435 0.005) 432
(0.056762 0.0368625 0.005) 431
(0.0611626 0.0484432 0.005) 552
(0.0528147 0.0343802 0.005) 370
(0.0574432 0.0475056 0.005) 551
(0.0594543 0.0407326 0.005) 491
(0.0545925 0.0487538 0.005) 550
(0.0626205 0.044219 0.005) 492
(0.0559968 0.042104 0.005) 491
(0.0865484 0.0722045 0.005) 857
(0.0610218 0.0458952 0.005) 552
(0.0635523 0.0429309 0.005) 492
(0.0476852 0.0423689 0.005) 489
(0.0567118 0.0401521 0.005) 491
(0.0538881 0.0423534 0.005) 490
(0.0486709 0.0458067 0.005) 549
(0.0531627 0.0409421 0.005) 490
(0.0678231 0.0488664 0.005) 553
(0.057297 0.04095 0.005) 491
(0.0527694 0.0426359 0.005) 490
(0.0566955 0.0424128 0.005) 491
(0.0558371 0.0408927 0.005) 491
(0.0643825 0.0535145 0.005) 612
(0.0528395 0.0498467 0.005) 550
(0.0598904 0.0507985 0.005) 611
(0.0464807 0.0445558 0.005) 489
(0.0566371 0.0436516 0.005) 491
(0.0730921 0.0635422 0.005) 734
(0.0558988 0.0413543 0.005) 491
(0.0555519 0.0405771 0.005) 491
(0.052448 0.041467 0.005) 490
(0.0457506 0.0417235 0.005) 489
(0.0556363 0.0420923 0.005) 491
(0.0516453 0.0463577 0.005) 550
(0.0587224 0.0521407 0.005) 611
(0.0438206 0.04392 0.005) 488
(0.0509872 0.0400708 0.005) 490
(0.0518305 0.0437703 0.005) 490
(0.0570408 0.0509035 0.005) 611
(0.0550815 0.0500156 0.005) 611
(0.0730644 0.0594314 0.005) 674
(0.0418358 0.0446526 0.005) 488
(0.0537103 0.0423715 0.005) 490
(0.050164 0.0401665 0.005) 490
(0.0541248 0.050673 0.005) 610
(0.0593711 0.0423807 0.005) 491
(0.0580031 0.0435412 0.005) 491
(0.0563255 0.0455958 0.005) 551
(0.0619199 0.0423163 0.005) 492
(0.0507921 0.0404754 0.005) 490
(0.0592951 0.0424835 0.005) 491
(0.0570025 0.0427346 0.005) 491
(0.0466796 0.0453147 0.005) 549
(0.0542255 0.042366 0.005) 490
(0.0539399 0.0407715 0.005) 490
(0.0571161 0.0477507 0.005) 551
(0.0597563 0.0515853 0.005) 611
(0.0560691 0.0468787 0.005) 551
(0.0622734 0.0547291 0.005) 612
(0.0611942 0.0585485 0.005) 672
(0.0705752 0.0677364 0.005) 794
(0.0543095 0.0456262 0.005) 550
(0.0567092 0.045746 0.005) 551
(0.0484426 0.0537009 0.005) 609
(0.0487861 0.044822 0.005) 489
(0.0504563 0.0491571 0.005) 550
(0.051932 0.0533526 0.005) 610
(0.0586322 0.0559199 0.005) 671
(0.0513584 0.0490083 0.005) 550
(0.0623321 0.0500876 0.005) 612
(0.0500718 0.0443071 0.005) 490
(0.0490419 0.0447746 0.005) 489
(0.0487303 0.0465229 0.005) 549
(0.0552074 0.0538285 0.005) 611
(0.0570512 0.0563093 0.005) 671
(0.056385 0.0476276 0.005) 551
(0.0636952 0.0481694 0.005) 552
(0.0556003 0.0454047 0.005) 551
(0.0560526 0.0472707 0.005) 551
(0.0582686 0.0490721 0.005) 551
(0.0482479 0.0461968 0.005) 549
(0.0496621 0.0449154 0.005) 489
(0.0567264 0.0498005 0.005) 551
(0.0589605 0.0590885 0.005) 671
(0.0417385 0.0506043 0.005) 608
(0.0607411 0.0544698 0.005) 612
(0.0597239 0.0476301 0.005) 551
(0.0535333 0.0454232 0.005) 550
(0.0484825 0.0449095 0.005) 489
(0.0642323 0.0587357 0.005) 672
(0.0609209 0.0486903 0.005) 552
(0.0548774 0.0480671 0.005) 550
(0.0481042 0.0468629 0.005) 549
(0.0493288 0.0552956 0.005) 669
(0.0428237 0.0472854 0.005) 548
(0.0641527 0.0534724 0.005) 612
(0.0442644 0.0451968 0.005) 548
(0.0614073 0.0532078 0.005) 612
(0.0444088 0.0477165 0.005) 548
(0.0477099 0.0474126 0.005) 549
(0.0600557 0.0467659 0.005) 552
(0.0450005 0.0461774 0.005) 549
(0.0622381 0.0562693 0.005) 672
(0.0770374 0.0779583 0.005) 915
(0.0491087 0.0461273 0.005) 549
(0.0446003 0.0506326 0.005) 608
(0.0524055 0.0516095 0.005) 610
(0.061113 0.0684804 0.005) 792
(0.0490914 0.0515463 0.005) 609
(0.0449757 0.0519704 0.005) 608
(0.0581971 0.0513941 0.005) 611
(0.0490014 0.0517237 0.005) 609
(0.0737821 0.0754431 0.005) 914
(0.0635859 0.0522513 0.005) 612
(0.0491668 0.050666 0.005) 609
(0.0853135 0.0665246 0.005) 797
(0.0509518 0.054951 0.005) 610
(0.0535502 0.0599483 0.005) 670
(0.0524634 0.0511563 0.005) 610
(0.055688 0.0522747 0.005) 611
(0.0463327 0.0509392 0.005) 609
(0.0447342 0.0520456 0.005) 608
(0.0629976 0.0522801 0.005) 612
(0.0565044 0.0506548 0.005) 611
(0.0471297 0.0511986 0.005) 609
(0.0437941 0.0525897 0.005) 608
(0.0472118 0.0494957 0.005) 549
(0.0813437 0.069561 0.005) 796
(0.0666126 0.0621423 0.005) 733
(0.0447007 0.0521421 0.005) 608
(0.0474275 0.0504303 0.005) 609
(0.0411355 0.0526539 0.005) 608
(0.0557171 0.0520916 0.005) 611
(0.0437797 0.0561331 0.005) 668
(0.0441104 0.0529243 0.005) 608
(0.0489121 0.0503705 0.005) 609
(0.048876 0.0496521 0.005) 549
(0.044568 0.0560049 0.005) 668
(0.0579913 0.050565 0.005) 611
(0.0461402 0.0496509 0.005) 549
(0.0492763 0.0599771 0.005) 669
(0.0536566 0.0579124 0.005) 670
(0.0815832 0.0703068 0.005) 856
(0.0577525 0.0561854 0.005) 671
(0.0528084 0.0505185 0.005) 610
(0.0586107 0.0514854 0.005) 611
(0.0512105 0.0572149 0.005) 670
(0.0479821 0.0547992 0.005) 609
(0.0543632 0.0537675 0.005) 610
(0.0462808 0.0499392 0.005) 549
(0.0487182 0.0573399 0.005) 669
(0.0531428 0.0503522 0.005) 610
(0.0459952 0.0510621 0.005) 609
(0.0524623 0.0527675 0.005) 610
(0.0461749 0.0505888 0.005) 609
(0.0512173 0.0492783 0.005) 550
(0.06769 0.0680099 0.005) 793
(0.0589029 0.0594064 0.005) 671
(0.0531651 0.0604205 0.005) 730
(0.0675109 0.0702892 0.005) 853
(0.0582472 0.0571758 0.005) 671
(0.0517765 0.0549301 0.005) 610
(0.0573635 0.0570395 0.005) 671
(0.0469527 0.0586445 0.005) 669
(0.0638369 0.0639949 0.005) 732
(0.0537479 0.0579497 0.005) 670
(0.0581609 0.0601872 0.005) 731
(0.0550147 0.05491 0.005) 611
(0.0626953 0.0638138 0.005) 732
(0.0566751 0.0561642 0.005) 671
(0.0434822 0.0564319 0.005) 668
(0.0599235 0.0629139 0.005) 731
(0.0552901 0.0598166 0.005) 671
(0.0549833 0.0595278 0.005) 670
(0.0507583 0.0544887 0.005) 610
(0.0561875 0.0555525 0.005) 671
(0.0409974 0.0568293 0.005) 668
(0.0512346 0.0616012 0.005) 730
(0.0551392 0.0547065 0.005) 611
(0.0476065 0.0603959 0.005) 729
(0.0493621 0.0542481 0.005) 609
(0.0537649 0.0562852 0.005) 670
(0.0478672 0.0574026 0.005) 669
(0.0470237 0.0552968 0.005) 669
(0.0439166 0.0571473 0.005) 668
(0.0446423 0.0574172 0.005) 668
(0.0477726 0.0561339 0.005) 669
(0.0560791 0.0549418 0.005) 611
(0.0458372 0.0561418 0.005) 669
(0.0522475 0.0554882 0.005) 670
(0.0487415 0.0551545 0.005) 669
(0.0471913 0.0580977 0.005) 669
(0.0487584 0.0551897 0.005) 669
(0.0481994 0.0573171 0.005) 669
(0.0483627 0.0579229 0.005) 669
(0.0494247 0.0547173 0.005) 609
(0.0532913 0.0559702 0.005) 670
(0.0539957 0.0586014 0.005) 670
(0.0453378 0.0551256 0.005) 669
(0.0571133 0.0566523 0.005) 671
(0.0438056 0.0557868 0.005) 668
(0.045963 0.0580276 0.005) 669
(0.053376 0.0589954 0.005) 670
(0.0480959 0.0550797 0.005) 669
(0.0429408 0.0558584 0.005) 668
(0.0521298 0.0566563 0.005) 670
(0.0449825 0.0607946 0.005) 728
(0.0520595 0.0615712 0.005) 730
(0.0441333 0.0613716 0.005) 728
(0.0535429 0.0605285 0.005) 730
(0.0560734 0.0619103 0.005) 731
(0.0502861 0.059074 0.005) 670
(0.0548675 0.0671628 0.005) 790
(0.0510643 0.0590143 0.005) 670
(0.0480806 0.0638761 0.005) 729
(0.0428811 0.0618597 0.005) 728
(0.0537083 0.061583 0.005) 730
(0.0493052 0.0628917 0.005) 729
(0.0489906 0.0609764 0.005) 729
(0.0538781 0.0610844 0.005) 730
(0.0576976 0.0625554 0.005) 731
(0.054287 0.0616644 0.005) 730
(0.044368 0.0607743 0.005) 728
(0.0498582 0.0618192 0.005) 729
(0.0491762 0.0609583 0.005) 729
(0.061508 0.0678418 0.005) 792
(0.0582481 0.0609526 0.005) 731
(0.0510795 0.0593783 0.005) 670
(0.0464383 0.0606796 0.005) 729
(0.0421428 0.0619215 0.005) 728
(0.0520526 0.0595409 0.005) 670
(0.0541303 0.0607441 0.005) 730
(0.0486405 0.0610565 0.005) 729
(0.0530707 0.0592021 0.005) 670
(0.0559983 0.0636363 0.005) 731
(0.0465773 0.0600557 0.005) 729
(0.0554507 0.0609002 0.005) 731
(0.0523896 0.0601836 0.005) 730
(0.0490462 0.0616978 0.005) 729
(0.055806 0.0596324 0.005) 671
(0.0538513 0.0616267 0.005) 730
(0.0491265 0.059717 0.005) 669
(0.0452307 0.0621691 0.005) 729
(0.0429091 0.0615701 0.005) 728
(0.0535698 0.0618403 0.005) 730
(0.0513349 0.0588937 0.005) 670
(0.0482912 0.0589779 0.005) 669
(0.0466292 0.0610323 0.005) 729
(0.0432443 0.0619238 0.005) 728
(0.0509872 0.0597301 0.005) 670
(0.0455205 0.0599924 0.005) 669
(0.042247 0.0606338 0.005) 728
(0.0464026 0.0590126 0.005) 669
(0.0508275 0.0589744 0.005) 670
(0.0520566 0.0603497 0.005) 730
(0.0564705 0.0602719 0.005) 731
(0.0505308 0.0665219 0.005) 790
(0.0465049 0.066178 0.005) 789
(0.0537132 0.0666338 0.005) 790
(0.0567977 0.0662205 0.005) 791
(0.0641434 0.0761015 0.005) 912
(0.0541269 0.0656455 0.005) 790
(0.0511002 0.0646419 0.005) 730
(0.0434084 0.0663149 0.005) 788
(0.0518717 0.0641223 0.005) 730
(0.0519356 0.0649508 0.005) 730
(0.0529224 0.064085 0.005) 730
(0.0523519 0.0641548 0.005) 730
(0.0523297 0.0658048 0.005) 790
(0.0508665 0.0649015 0.005) 730
(0.0564368 0.0656975 0.005) 791
(0.0484965 0.066128 0.005) 789
(0.051901 0.0651073 0.005) 790
(0.0508703 0.0670961 0.005) 790
(0.0550322 0.0647101 0.005) 731
(0.0558551 0.0654042 0.005) 791
(0.0509647 0.0636708 0.005) 730
(0.0531749 0.0716697 0.005) 850
(0.0589336 0.0657157 0.005) 791
(0.0583775 0.0651106 0.005) 791
(0.0566867 0.0649795 0.005) 731
(0.0519103 0.0636191 0.005) 730
(0.0528006 0.0634803 0.005) 730
(0.0495577 0.0633793 0.005) 729
(0.0496214 0.0639247 0.005) 729
(0.052205 0.0639861 0.005) 730
(0.0476555 0.0638955 0.005) 729
(0.0496381 0.0682902 0.005) 789
(0.0486123 0.0654272 0.005) 789
(0.0472276 0.0638525 0.005) 729
(0.0468179 0.0643502 0.005) 729
(0.0534145 0.0659227 0.005) 790
(0.0538584 0.0655836 0.005) 790
(0.0480683 0.0639723 0.005) 729
(0.0496825 0.0686525 0.005) 789
(0.0470772 0.0671575 0.005) 789
(0.0517134 0.0653464 0.005) 790
(0.0457732 0.0655018 0.005) 789
(0.0547821 0.0672129 0.005) 790
(0.0563649 0.0699188 0.005) 791
(0.0532649 0.0665007 0.005) 790
(0.0521059 0.0648665 0.005) 730
(0.0465664 0.0639597 0.005) 729
(0.0529063 0.0674575 0.005) 790
(0.051337 0.0633063 0.005) 730
(0.0539744 0.0667053 0.005) 790
(0.0517735 0.0695829 0.005) 790
(0.0487541 0.0687245 0.005) 789
(0.0545275 0.0697605 0.005) 790
(0.0504536 0.0675205 0.005) 790
(0.0495307 0.0680895 0.005) 789
(0.0577247 0.0731279 0.005) 851
(0.050044 0.0693742 0.005) 790
(0.051018 0.068048 0.005) 790
(0.05061 0.0676654 0.005) 790
(0.0444114 0.0701868 0.005) 848
(0.0500047 0.0679741 0.005) 790
(0.0514387 0.0708752 0.005) 850
(0.0521346 0.0735277 0.005) 850
(0.0513935 0.0681158 0.005) 790
(0.0485879 0.0684941 0.005) 789
(0.0431965 0.069285 0.005) 788
(0.0566353 0.0691935 0.005) 791
(0.053631 0.0678608 0.005) 790
(0.051463 0.0750107 0.005) 910
(0.0510714 0.0674506 0.005) 790
(0.0482431 0.0696841 0.005) 789
(0.0555934 0.0685999 0.005) 791
(0.0557633 0.0688165 0.005) 791
(0.0499016 0.0681018 0.005) 789
(0.0503078 0.0680935 0.005) 790
(0.0491717 0.069473 0.005) 789
(0.053616 0.068176 0.005) 790
(0.0506763 0.0674886 0.005) 790
(0.0514476 0.0676324 0.005) 790
(0.0570557 0.078271 0.005) 911
(0.0508804 0.067829 0.005) 790
(0.0470335 0.0694022 0.005) 789
(0.0537649 0.0687224 0.005) 790
(0.0542555 0.0705436 0.005) 850
(0.0483207 0.0693329 0.005) 789
(0.0445425 0.0701153 0.005) 848
(0.0523179 0.0684957 0.005) 790
(0.0505963 0.0677133 0.005) 790
(0.0505998 0.067393 0.005) 790
(0.0455814 0.0697028 0.005) 789
(0.0529612 0.0678524 0.005) 790
(0.0562017 0.0695637 0.005) 791
(0.0494535 0.0714506 0.005) 849
(0.0528189 0.0690404 0.005) 790
(0.0536642 0.0682438 0.005) 790
(0.0573768 0.0691908 0.005) 791
(0.051238 0.067491 0.005) 790
(0.053986 0.0697965 0.005) 790
(0.0534697 0.0679055 0.005) 790
(0.0475182 0.070636 0.005) 849
(0.0491582 0.0714726 0.005) 849
(0.0533971 0.0729691 0.005) 850
(0.0433091 0.0730298 0.005) 848
(0.0452835 0.0730349 0.005) 849
(0.0463415 0.0739078 0.005) 849
(0.0554222 0.0727559 0.005) 851
(0.0507556 0.0723229 0.005) 850
(0.051761 0.0723119 0.005) 850
(0.048718 0.0715372 0.005) 849
(0.0466063 0.0723185 0.005) 849
(0.0457419 0.0725021 0.005) 849
(0.0546836 0.0726457 0.005) 850
(0.0492457 0.0717882 0.005) 849
(0.0487884 0.072205 0.005) 849
(0.0461846 0.0718617 0.005) 849
(0.0469274 0.0733481 0.005) 849
(0.0475604 0.0742693 0.005) 849
(0.0471243 0.071901 0.005) 849
(0.0484559 0.0718754 0.005) 849
(0.0525018 0.0737931 0.005) 850
(0.0519246 0.073345 0.005) 850
(0.048277 0.074258 0.005) 849
(0.0440094 0.0727889 0.005) 848
(0.0543829 0.0752969 0.005) 910
(0.0518711 0.0728752 0.005) 850
(0.054282 0.0724185 0.005) 850
(0.0532633 0.0723953 0.005) 850
(0.0517426 0.0721087 0.005) 850
(0.0531628 0.0731552 0.005) 850
(0.054754 0.0737676 0.005) 850
(0.0546692 0.0722614 0.005) 850
(0.05057 0.071336 0.005) 850
(0.0483197 0.0715545 0.005) 849
(0.0475316 0.0718434 0.005) 849
(0.0494032 0.0716188 0.005) 849
(0.0514284 0.0718913 0.005) 850
(0.0485597 0.0727429 0.005) 849
(0.0496826 0.0732023 0.005) 849
(0.0523493 0.0724115 0.005) 850
(0.0450518 0.0726896 0.005) 849
(0.0513443 0.0716431 0.005) 850
(0.0517758 0.0715983 0.005) 850
(0.0470815 0.0732807 0.005) 849
(0.0485035 0.0725396 0.005) 849
(0.0531568 0.0720426 0.005) 850
(0.0464532 0.072324 0.005) 849
(0.0487678 0.071376 0.005) 849
(0.0484516 0.0719889 0.005) 849
(0.0486955 0.0714734 0.005) 849
(0.050951 0.0714259 0.005) 850
(0.0510914 0.0780878 0.005) 910
(0.0518493 0.0763438 0.005) 910
(0.0495039 0.0759608 0.005) 909
(0.0539474 0.0787123 0.005) 910
(0.0529733 0.0759866 0.005) 910
(0.0553956 0.0769227 0.005) 911
(0.0513034 0.0764542 0.005) 910
(0.0486109 0.0752059 0.005) 909
(0.0482384 0.0753557 0.005) 909
(0.0530366 0.0761454 0.005) 910
(0.0468355 0.0757424 0.005) 909
(0.0527777 0.0761245 0.005) 910
(0.0490415 0.0751344 0.005) 909
(0.0519502 0.076375 0.005) 910
(0.0529502 0.0754471 0.005) 910
(0.0472863 0.0755382 0.005) 909
(0.0519194 0.0755214 0.005) 910
(0.0495874 0.0752413 0.005) 909
(0.0516967 0.0763907 0.005) 910
(0.048043 0.076737 0.005) 909
(0.0507165 0.0755682 0.005) 910
(0.0450577 0.0766111 0.005) 909
(0.052518 0.0765714 0.005) 910
(0.0533385 0.0755891 0.005) 910
(0.050883 0.0751229 0.005) 910
(0.0477163 0.0759002 0.005) 909
(0.0518614 0.0760684 0.005) 910
(0.0518172 0.075967 0.005) 910
(0.048917 0.0764912 0.005) 909
(0.050407 0.0750328 0.005) 910
(0.0521354 0.075239 0.005) 910
(0.0465254 0.0755929 0.005) 909
(0.0480948 0.0753024 0.005) 909
(0.0508801 0.0754823 0.005) 910
(0.0508075 0.0750749 0.005) 910
(0.0485606 0.0751819 0.005) 909
(0.0501913 0.0750639 0.005) 910
(0.0528958 0.076165 0.005) 910
(0.0504176 0.0750525 0.005) 910
(0.0510829 0.0759405 0.005) 910
(0.052188 0.0754146 0.005) 910
(0.0524631 0.0757349 0.005) 910
(0.0495702 0.0753994 0.005) 909
(0.0489826 0.0752015 0.005) 909
(0.0498639 0.0763367 0.005) 909
(0.0454732 0.0760945 0.005) 909
(0.0522696 0.0757203 0.005) 910
(0.048468 0.075268 0.005) 909
(0.048775 0.0768454 0.005) 909
(0.0490408 0.0762026 0.005) 909
(0.0527794 0.0794773 0.005) 910
(0.0502151 0.0786434 0.005) 910
(0.0525012 0.0790789 0.005) 910
(0.0501519 0.0785782 0.005) 910
(0.0486443 0.0793178 0.005) 909
(0.0508751 0.0788642 0.005) 910
(0.048726 0.0788019 0.005) 909
(0.0521718 0.0793051 0.005) 910
(0.0517461 0.0798422 0.005) 910
(0.0543795 0.0796487 0.005) 910
(0.0544072 0.0795777 0.005) 910
(0.0487598 0.0794073 0.005) 909
(0.0514878 0.079909 0.005) 910
(0.0501684 0.0784994 0.005) 910
(0.0543928 0.0797547 0.005) 910
(0.048614 0.0787694 0.005) 909
(0.0500519 0.0787439 0.005) 910
(0.0515586 0.0794673 0.005) 910
(0.0499186 0.0794571 0.005) 909
(0.0466342 0.0794349 0.005) 909
(0.0491419 0.0786402 0.005) 909
(0.0494303 0.0799472 0.005) 909
(0.0520402 0.0798077 0.005) 910
(0.0490801 0.0787056 0.005) 909
(0.0489141 0.0795136 0.005) 909
(0.0482996 0.0787727 0.005) 909
(0.0527144 0.079378 0.005) 910
(0.0515153 0.0793045 0.005) 910
(0.0479862 0.0789077 0.005) 909
(0.0534333 0.0791667 0.005) 910
(0.0487088 0.0796589 0.005) 909
(0.0507009 0.07947 0.005) 910
(0.0501812 0.0785166 0.005) 910
(0.0492966 0.0786724 0.005) 909
(0.0493711 0.0792063 0.005) 909
(0.0488252 0.0796794 0.005) 909
(0.0508341 0.0790955 0.005) 910
(0.0489215 0.0785911 0.005) 909
(0.0504259 0.0788075 0.005) 910
(0.0487194 0.0792961 0.005) 909
(0.0496001 0.0786718 0.005) 909
(0.0531662 0.0795409 0.005) 910
(0.0479596 0.078856 0.005) 909
(0.0504279 0.0786355 0.005) 910
(0.0510234 0.0789823 0.005) 910
(0.0501268 0.078513 0.005) 910
(0.0507901 0.0787969 0.005) 910
(0.0480361 0.0794465 0.005) 909
(0.050673 0.0790504 0.005) 910
(0.0465595 0.0798109 0.005) 909
(0.0499257 0.0818939 0.005) 969
(0.0504488 0.0824161 0.005) 970
(0.0491041 0.0821436 0.005) 969
(0.0494395 0.0818369 0.005) 969
(0.0529384 0.0825965 0.005) 970
(0.0498259 0.0821483 0.005) 969
(0.0499675 0.0818299 0.005) 969
(0.0516997 0.0821033 0.005) 970
(0.0496998 0.081938 0.005) 969
(0.0468026 0.0828411 0.005) 969
(0.0505653 0.0820911 0.005) 970
(0.0488572 0.0820492 0.005) 969
(0.0526715 0.0826205 0.005) 970
(0.0491324 0.0820018 0.005) 969
(0.0524798 0.0822133 0.005) 970
(0.0505092 0.082096 0.005) 970
(0.0482141 0.0824969 0.005) 969
(0.0502255 0.0817734 0.005) 970
(0.0518623 0.0822825 0.005) 970
(0.0517026 0.0823087 0.005) 970
(0.0532351 0.0826333 0.005) 970
(0.0499007 0.0817885 0.005) 969
(0.0504957 0.0820766 0.005) 970
(0.0521034 0.0826248 0.005) 970
(0.046754 0.0825858 0.005) 969
(0.0475522 0.0826973 0.005) 969
(0.0518485 0.0826374 0.005) 970
(0.0502808 0.0818067 0.005) 970
(0.0511337 0.0820746 0.005) 970
(0.0501533 0.0818437 0.005) 970
(0.0488543 0.0826381 0.005) 969
(0.0489227 0.0820979 0.005) 969
(0.0478261 0.0825571 0.005) 969
(0.0503493 0.0821145 0.005) 970
(0.0501952 0.0818788 0.005) 970
(0.0494627 0.0818583 0.005) 969
(0.0502599 0.0820542 0.005) 970
(0.0487475 0.0830487 0.005) 969
(0.0496185 0.0819886 0.005) 969
(0.0485104 0.0827131 0.005) 969
(0.0485881 0.0824947 0.005) 969
(0.0480308 0.0825942 0.005) 969
(0.0496269 0.0819243 0.005) 969
(0.0493 0.0818228 0.005) 969
(0.048135 0.0829892 0.005) 969
(0.0521959 0.0827654 0.005) 970
(0.0505881 0.082257 0.005) 970
(0.0499257 0.0818063 0.005) 969
(0.0509054 0.0820013 0.005) 970
(0.0511595 0.0824549 0.005) 970
(0.0500845 0.0847537 0.005) 970
(0.0498494 0.0848103 0.005) 969
(0.0476929 0.085341 0.005) 1029
(0.0508552 0.0850925 0.005) 1030
(0.0485256 0.085396 0.005) 1029
(0.0511159 0.0853815 0.005) 1030
(0.0523312 0.0854522 0.005) 1030
(0.0515503 0.0850213 0.005) 1030
(0.0492469 0.0853428 0.005) 1029
(0.048666 0.0849875 0.005) 969
(0.049521 0.0850957 0.005) 1029
(0.0516392 0.0852224 0.005) 1030
(0.0495588 0.0847735 0.005) 969
(0.0510334 0.0850897 0.005) 1030
(0.0494415 0.0849049 0.005) 969
(0.048048 0.0851809 0.005) 1029
(0.0502089 0.0847414 0.005) 970
(0.0489837 0.0852352 0.005) 1029
(0.0490779 0.0849792 0.005) 969
(0.0501065 0.0847995 0.005) 970
(0.0501479 0.0847799 0.005) 970
(0.048401 0.0850692 0.005) 1029
(0.0501427 0.0849798 0.005) 970
(0.0516973 0.0851231 0.005) 1030
(0.0486294 0.0851926 0.005) 1029
(0.0486823 0.0849424 0.005) 969
(0.0508226 0.0848129 0.005) 970
(0.0504228 0.0852142 0.005) 1030
(0.050766 0.0849044 0.005) 970
(0.049581 0.085099 0.005) 1029
(0.0501876 0.085073 0.005) 1030
(0.0506534 0.0850285 0.005) 1030
(0.0492777 0.0847841 0.005) 969
(0.0499166 0.0847323 0.005) 969
(0.0518171 0.0853326 0.005) 1030
(0.0518205 0.0853153 0.005) 1030
(0.0514749 0.0849925 0.005) 970
(0.0498187 0.0847863 0.005) 969
(0.0478017 0.0853265 0.005) 1029
(0.0509797 0.085042 0.005) 1030
(0.0501004 0.084761 0.005) 970
(0.0487651 0.085159 0.005) 1029
(0.0503986 0.0849091 0.005) 970
(0.0492839 0.0848557 0.005) 969
(0.0519259 0.0851931 0.005) 1030
(0.0495834 0.0849817 0.005) 969
(0.0494896 0.0849322 0.005) 969
(0.0509783 0.0848488 0.005) 970
(0.0494176 0.0847951 0.005) 969
(0.0505139 0.0847828 0.005) 970
(0.0497842 0.0875095 0.005) 1029
(0.0508478 0.0876775 0.005) 1030
(0.0489849 0.0877155 0.005) 1029
(0.0511502 0.0877935 0.005) 1030
(0.0503193 0.0875545 0.005) 1030
(0.051137 0.0878094 0.005) 1030
(0.0499158 0.0875019 0.005) 1029
(0.0497571 0.0875256 0.005) 1029
(0.0499349 0.0877347 0.005) 1029
(0.0501573 0.0875256 0.005) 1030
(0.0499517 0.0875006 0.005) 1029
(0.0508364 0.0876716 0.005) 1030
(0.0506275 0.0875872 0.005) 1030
(0.0499813 0.0875001 0.005) 1029
(0.0499188 0.0875014 0.005) 1029
(0.0498102 0.0875156 0.005) 1029
(0.0495152 0.0877796 0.005) 1029