/*--------------------------------*- C++ -*----------------------------------*\
| =========                 |                                                 |
| \\      /  F ield         | OpenFOAM: The Open Source CFD Toolbox           |
|  \\    /   O peration     | Version:  1.7.x                                 |
|   \\  /    A nd           | Web:      www.OpenFOAM.com                      |
|    \\/     M anipulation  |                                                 |
\*---------------------------------------------------------------------------*/
FoamFile
{
    version     2.0;
    format      ascii;
    class       vectorField;
    location    "0.1";
    object      U;
}
// * * * * * * * * * * * * * * * * * * * * * * * * * * * * * * * * * * * * * //


950
(
(1.02508 -0.282817 0)
(0.603563 -0.0072619 0)
(1.06626 -0.218055 0)
(1.18695 -0.13164 0)
(0.917014 -0.36924 0)
(1.16939 -0.183704 0)
(1.18848 -0.158495 0)
(1.18859 -0.116356 0)
(0.908284 -0.33225 0)
(0.939981 -0.32783 0)
(0.847027 -0.379922 0)
(0.937946 -0.336147 0)
(1.20566 -0.0301112 0)
(1.21617 -0.1038 0)
(1.15643 -0.17876 0)
(1.07548 -0.265364 0)
(1.1215 -0.197031 0)
(1.11177 -0.211154 0)
(1.26046 -0.078219 0)
(1.23508 -0.0293626 0)
(1.18993 -0.125215 0)
(0.896839 -0.048656 0)
(1.00119 -0.263714 0)
(1.29507 -0.0510197 0)
(1.08515 -0.219004 0)
(1.16518 -0.138272 0)
(1.29594 -0.0303935 0)
(0.95461 -0.276822 0)
(0.895112 -0.377821 0)
(1.31168 -0.0571735 0)
(0.903283 -0.350117 0)
(1.322 -0.0489775 0)
(0.843937 -0.440658 0)
(1.22114 -0.126658 0)
(1.16456 -0.145265 0)
(0.774758 -0.413571 0)
(1.11433 -0.184675 0)
(1.27749 -0.0264503 0)
(0.919704 -0.325281 0)
(0.962557 -0.30985 0)
(1.26802 -0.0656979 0)
(1.30948 -0.0369224 0)
(0.983071 -0.344197 0)
(1.23468 -0.0769689 0)
(0.826504 -0.420143 0)
(1.00404 -0.00801215 0)
(1.18281 -0.116825 0)
(0.882917 -0.346875 0)
(1.33423 -0.0323312 0)
(1.21779 -0.0492224 0)
(1.2338 -0.0973 0)
(1.29654 -0.033244 0)
(1.25406 -0.0686387 0)
(0.802681 -0.490086 0)
(1.16761 -0.165861 0)
(1.0803 -0.17326 0)
(1.22886 -0.0783504 0)
(1.285 -0.0347331 0)
(0.976498 -0.0136952 0)
(1.26291 -0.0715339 0)
(1.20146 -0.107276 0)
(0.986768 -0.268373 0)
(1.00107 -0.00745208 0)
(1.03637 -0.214272 0)
(0.960414 -0.061545 0)
(0.904773 -0.310338 0)
(0.886522 -0.399008 0)
(1.27204 -0.0453695 0)
(1.26297 -0.0725324 0)
(1.28595 -0.0513202 0)
(0.829317 -0.391692 0)
(1.06558 -0.203412 0)
(1.26696 -0.0661227 0)
(1.23427 -0.0737139 0)
(0.813668 -0.418408 0)
(0.864796 -0.359475 0)
(0.9889 -0.286636 0)
(1.30443 -0.0412683 0)
(1.12857 -0.132611 0)
(1.04298 -0.199258 0)
(1.09843 -0.144423 0)
(0.92562 -0.29076 0)
(1.28367 -0.03472 0)
(1.22371 -0.0110366 0)
(0.874522 -0.343743 0)
(1.17407 -0.065347 0)
(1.2187 -0.0920424 0)
(0.815208 -0.492498 0)
(0.729939 -0.453134 0)
(0.86385 -0.432658 0)
(1.30499 -0.0505505 0)
(0.970455 -0.253852 0)
(1.28511 -0.0554578 0)
(1.3251 -0.0955499 0)
(0.819754 -0.361916 0)
(1.19236 -0.073092 0)
(1.26842 -0.063252 0)
(0.712142 -0.468921 0)
(0.721999 -0.464617 0)
(1.18727 -0.0727135 0)
(1.23849 -0.0927834 0)
(1.2387 -0.0889389 0)
(0.846844 -0.382828 0)
(1.11362 -0.167183 0)
(0.840841 -0.369946 0)
(1.24046 -0.0870485 0)
(1.21695 -0.105958 0)
(0.948886 -0.293353 0)
(1.17397 -0.135218 0)
(1.31945 -0.0854523 0)
(1.21417 -0.0942935 0)
(1.18584 -0.0984292 0)
(1.06034 -0.173299 0)
(1.11926 -0.127051 0)
(1.17347 -0.168614 0)
(1.07194 -0.172992 0)
(0.91992 -0.336761 0)
(1.03363 -0.178719 0)
(0.754591 -0.485804 0)
(1.15628 -0.086897 0)
(1.14657 -0.154447 0)
(1.05645 -0.0321284 0)
(1.2021 -0.116943 0)
(1.0487 -0.177314 0)
(0.799874 -0.0170794 0)
(1.19243 -0.0963883 0)
(1.17724 -0.0990541 0)
(0.82419 -0.401052 0)
(0.882002 -0.334981 0)
(0.803554 -0.416986 0)
(0.781782 -0.416175 0)
(1.16811 -0.148862 0)
(1.23036 -0.0607513 0)
(1.20499 -0.125416 0)
(1.13982 -0.0897671 0)
(0.91361 -0.294346 0)
(1.18701 -0.0975099 0)
(1.2007 -0.0853535 0)
(0.689181 -0.501724 0)
(0.678223 -0.515324 0)
(1.12642 -0.00842897 0)
(0.800072 -0.397864 0)
(1.2312 -0.102755 0)
(0.949995 -0.293728 0)
(0.960558 -0.271003 0)
(0.90678 -0.330556 0)
(0.77035 -0.412462 0)
(1.02573 -0.228197 0)
(1.18494 -0.0932302 0)
(0.820067 -0.400367 0)
(1.05278 -0.162453 0)
(0.824203 -0.367003 0)
(0.693017 -0.498983 0)
(1.23943 -0.0606762 0)
(1.21623 -0.0711478 0)
(1.16151 -0.101067 0)
(0.61897 -0.56341 0)
(0.56665 -0.664889 0)
(1.22876 -0.0793574 0)
(0.662271 -0.545821 0)
(0.806673 -0.395968 0)
(0.606782 -0.588281 0)
(0.738627 -0.441911 0)
(1.12236 -0.11652 0)
(0.682664 -0.548489 0)
(1.172 -0.152783 0)
(0.737918 -0.488655 0)
(1.25005 -0.0580913 0)
(0.574461 -0.621609 0)
(0.922038 -0.317457 0)
(0.76071 -0.551747 0)
(0.743441 -0.53202 0)
(0.796863 -0.489979 0)
(1.1514 -0.137478 0)
(1.08219 -0.132661 0)
(0.814119 -0.388283 0)
(0.624548 -0.559505 0)
(1.20391 -0.0950412 0)
(1.09805 -0.151403 0)
(1.12877 -0.159807 0)
(0.918835 -0.310535 0)
(1.17811 -0.162652 0)
(0.602182 -0.607074 0)
(0.964995 -0.226018 0)
(1.17562 -0.132119 0)
(0.670142 -0.519928 0)
(1.25142 -0.0461994 0)
(0.828089 -0.452765 0)
(1.21748 -0.106436 0)
(1.25417 -0.0524974 0)
(0.837429 -0.443862 0)
(1.1966 -0.120832 0)
(1.33835 -0.0101457 0)
(1.15804 -0.167935 0)
(1.15619 -0.168876 0)
(0.781353 -0.461352 0)
(0.964621 -0.268312 0)
(0.711925 -0.599339 0)
(1.03425 -0.266428 0)
(0.963582 -0.203628 0)
(0.99501 -0.0532684 0)
(0.508753 -0.715265 0)
(0.988745 -0.236862 0)
(0.829113 -0.35301 0)
(0.822324 -0.358918 0)
(0.945738 -0.282658 0)
(0.451426 -0.752394 0)
(1.18658 -0.109658 0)
(0.476755 -0.760655 0)
(0.975952 -0.284211 0)
(0.985087 -0.250577 0)
(0.836183 -0.336928 0)
(0.616322 -0.578647 0)
(0.536066 -0.639599 0)
(0.720799 -0.496902 0)
(0.586684 -0.590625 0)
(0.893474 -0.276352 0)
(1.03523 -0.211544 0)
(0.83366 -0.37349 0)
(0.730719 -0.484202 0)
(0.917216 -0.350966 0)
(0.653329 -0.539423 0)
(0.75423 -0.450414 0)
(0.885859 -0.363455 0)
(0.762612 -0.444453 0)
(0.643712 -0.475647 0)
(0.971685 -0.265708 0)
(0.673878 -0.510451 0)
(0.618537 -0.579695 0)
(0.682963 -0.511462 0)
(0.773665 -0.421465 0)
(0.613261 -0.562392 0)
(0.928382 -0.26869 0)
(1.07547 -0.201727 0)
(0.60693 -0.569427 0)
(0.586596 -0.60374 0)
(0.342509 -0.712218 0)
(0.431275 -0.743338 0)
(0.548851 -0.599878 0)
(0.406223 -0.664016 0)
(0.587126 -0.558187 0)
(0.402861 -0.778271 0)
(0.99702 -0.275141 0)
(0.357153 -0.835923 0)
(0.651528 -0.647944 0)
(0.945785 -0.263487 0)
(0.325107 -0.74073 0)
(0.792109 -0.413987 0)
(1.1819 -0.0221883 0)
(0.511356 -0.643554 0)
(0.606581 -0.551895 0)
(0.880447 -0.338019 0)
(0.754044 -0.400454 0)
(0.66821 -0.514723 0)
(0.494946 -0.678088 0)
(0.382651 -0.748092 0)
(0.73615 -0.453388 0)
(0.740328 -0.474991 0)
(0.501053 -0.613141 0)
(0.715965 -0.456344 0)
(0.663808 -0.524173 0)
(0.316878 -0.796224 0)
(0.694736 -0.515013 0)
(0.473371 -0.744478 0)
(0.83081 -0.335738 0)
(0.587934 -0.595664 0)
(0.702501 -0.448958 0)
(0.42928 -0.769707 0)
(0.117739 -1.05211 0)
(0.734247 -0.420848 0)
(1.03814 -0.199974 0)
(0.547718 -0.551325 0)
(0.421267 -0.758648 0)
(0.924634 -0.305772 0)
(0.575145 -0.656741 0)
(0.829413 -0.354878 0)
(0.451333 -0.627301 0)
(0.467541 -0.751471 0)
(0.356328 -0.7965 0)
(0.503773 -0.706349 0)
(0.172354 -0.981419 0)
(0.373351 -0.671459 0)
(0.490737 -0.674631 0)
(0.564587 -0.600812 0)
(0.708736 -0.477803 0)
(0.390651 -0.792096 0)
(0.724198 -0.45852 0)
(0.441224 -0.697536 0)
(0.544778 -0.60741 0)
(0.602795 -0.527712 0)
(0.344935 -0.830557 0)
(0.264151 -0.933503 0)
(0.685869 -0.520623 0)
(0.515355 -0.630718 0)
(0.611444 -0.567708 0)
(0.355553 -0.828096 0)
(0.37746 -0.687328 0)
(0.285393 -0.899081 0)
(0.512808 -0.505678 0)
(0.590803 -0.55209 0)
(0.455023 -0.644534 0)
(0.478665 -0.725451 0)
(0.289884 -0.862064 0)
(0.987908 -0.0776091 0)
(0.546931 -0.623563 0)
(0.369364 -0.863492 0)
(0.340154 -0.741544 0)
(0.211705 -0.956714 0)
(0.414121 -0.721349 0)
(0.600641 -0.496562 0)
(0.350122 -0.788391 0)
(0.603354 -0.609427 0)
(0.224846 -0.942782 0)
(0.218451 -0.896933 0)
(0.34823 -0.7991 0)
(0.269467 -0.8927 0)
(0.628667 -0.552203 0)
(0.431341 -0.65588 0)
(0.533838 -0.607736 0)
(0.487624 -0.582307 0)
(0.394507 -0.739432 0)
(1.14845 -0.0451806 0)
(0.324781 -0.830768 0)
(0.217483 -0.950114 0)
(0.30063 -0.826304 0)
(0.317874 -0.7461 0)
(0.243417 -0.906631 0)
(0.519458 -0.586718 0)
(0.667786 -0.490009 0)
(0.350824 -0.676445 0)
(0.29738 -0.83832 0)
(0.466198 -0.643267 0)
(0.494994 -0.573016 0)
(0.59659 -0.481794 0)
(1.15311 -0.0443338 0)
(0.247747 -0.740314 0)
(0.287269 -0.836178 0)
(0.338152 -0.788173 0)
(0.294363 -0.735983 0)
(0.230796 -0.948994 0)
(0.276741 -0.867062 0)
(0.433179 -0.653126 0)
(0.347592 -0.867236 0)
(0.316497 -0.809574 0)
(0.297679 -0.852485 0)
(0.282875 -0.858924 0)
(0.739141 -0.352096 0)
(0.420526 -0.713631 0)
(0.3173 -0.822644 0)
(0.340189 -0.668938 0)
(0.243065 -0.853274 0)
(0.15319 -0.947806 0)
(0.389299 -0.694142 0)
(0.638662 -0.488187 0)
(0.981466 -0.125244 0)
(0.180919 -0.934979 0)
(0.161421 -0.97839 0)
(0.352567 -0.657972 0)
(0.185136 -0.872663 0)
(0.210273 -0.812558 0)
(0.331461 -0.690722 0)
(0.736209 -0.393435 0)
(0.316091 -0.723379 0)
(0.248355 -0.899838 0)
(0.173287 -0.908369 0)
(0.21855 -0.844907 0)
(0.402275 -0.650221 0)
(0.41419 -0.621567 0)
(0.651951 -0.435907 0)
(0.168188 -0.92419 0)
(0.276813 -0.937806 0)
(0.132456 -0.997693 0)
(0.16267 -0.934707 0)
(0.221485 -0.883868 0)
(0.186335 -0.843821 0)
(0.192535 -0.871071 0)
(0.176413 -0.893804 0)
(0.54913 -0.511281 0)
(0.0727911 -0.827206 0)
(0.553045 -0.554047 0)
(0.194678 -0.964916 0)
(0.164513 -0.944334 0)
(0.179048 -0.864906 0)
(0.777313 -0.349634 0)
(0.357596 -0.80459 0)
(0.227329 -0.862628 0)
(0.0915666 -0.916526 0)
(0.512036 -0.508035 0)
(0.166179 -0.788178 0)
(0.410731 -0.683147 0)
(0.165833 -0.829311 0)
(0.471766 -0.62981 0)
(0.239576 -0.742969 0)
(0.325464 -0.695363 0)
(0.232259 -0.950875 0)
(0.137363 -0.845219 0)
(0.589948 -0.4236 0)
(0.839346 -0.025289 0)
(0.13838 -0.891492 0)
(0.183778 -0.770984 0)
(0.101625 -0.928958 0)
(1.09502 -0.0226992 0)
(0.0425772 -0.915007 0)
(-0.0560626 -0.937924 0)
(0.129447 -0.978467 0)
(0.0389995 -0.911246 0)
(0.992099 -0.0593838 0)
(0.269596 -0.944407 0)
(0.0680394 -0.907298 0)
(1.00689 -0.219844 0)
(0.278915 -0.673489 0)
(0.890641 -0.203305 0)
(0.103187 -0.94647 0)
(0.228575 -0.8555 0)
(-0.0111228 -0.92946 0)
(0.15014 -0.761111 0)
(0.236351 -0.960204 0)
(0.0956134 -0.997724 0)
(-0.00382074 -0.929657 0)
(0.19437 -0.726546 0)
(-0.0165958 -0.985116 0)
(1.00931 -0.124556 0)
(0.742003 -0.390021 0)
(-0.0115736 -0.88153 0)
(-0.00219798 -0.947463 0)
(-0.0312707 -0.875873 0)
(0.0414595 -0.929886 0)
(0.164503 -0.722612 0)
(0.190805 -0.711934 0)
(0.000904177 -0.975452 0)
(0.0271621 -0.959628 0)
(0.367419 -0.566136 0)
(0.124414 -0.998371 0)
(-0.0308256 -0.977943 0)
(0.858576 -0.172039 0)
(0.392116 -0.642189 0)
(1.08568 -0.257083 0)
(0.387634 -0.612049 0)
(0.13986 -0.922276 0)
(0.149287 -0.965429 0)
(0.396188 -0.552818 0)
(0.191059 -0.701418 0)
(0.229666 -0.812411 0)
(-0.0726812 -0.982063 0)
(0.259481 -0.683464 0)
(0.125599 -0.940819 0)
(-0.0573273 -0.947854 0)
(0.146457 -0.878154 0)
(-0.0656249 -0.973659 0)
(0.0581925 -0.993962 0)
(0.84306 -0.278475 0)
(0.30055 -0.763339 0)
(0.508631 -0.536638 0)
(1.01317 -0.0783128 0)
(0.226987 -0.853064 0)
(0.095169 -0.915102 0)
(0.172182 -0.897996 0)
(-1.13344 -1.52579 0)
(0.647768 -0.467065 0)
(0.130362 -0.86093 0)
(0.340108 -0.711727 0)
(0.134022 -0.93053 0)
(0.637339 -0.461712 0)
(0.188601 -0.872059 0)
(-0.0390009 -0.866561 0)
(0.418735 -0.594489 0)
(0.235877 -0.729359 0)
(0.242996 -0.70834 0)
(0.0522998 -0.934512 0)
(0.127692 -0.912701 0)
(-0.107983 -0.874267 0)
(0.258471 -0.650891 0)
(0.112426 -0.951221 0)
(-0.490049 -1.09278 0)
(-0.00749736 -0.958598 0)
(0.128792 -0.852853 0)
(-0.0501276 -0.854981 0)
(-0.0388923 -0.910283 0)
(-0.0270616 -0.851446 0)
(0.0945726 -0.76278 0)
(-0.019551 -0.872255 0)
(0.127739 -0.946738 0)
(-0.0575195 -0.895438 0)
(0.0817458 -0.91004 0)
(-0.0263296 -0.937724 0)
(-0.11169 -0.88473 0)
(-0.0362261 -0.920099 0)
(-0.019458 -0.8438 0)
(-0.0229996 -0.826973 0)
(-0.0138515 -0.953363 0)
(0.128239 -0.85199 0)
(0.183648 -0.692301 0)
(-0.0794753 -0.933007 0)
(0.150829 -0.914595 0)
(-0.0814317 -0.915591 0)
(-0.0280229 -0.825768 0)
(0.100476 -0.807453 0)
(-0.0407485 -0.927668 0)
(-0.074391 -0.899332 0)
(0.0704308 -0.832354 0)
(-0.0745878 -0.862364 0)
(0.106612 -0.809321 0)
(-0.0346474 -0.812028 0)
(0.103785 -0.857688 0)
(0.157982 -0.837946 0)
(0.0158494 -0.912833 0)
(0.580655 -0.388376 0)
(0.0325125 -0.914749 0)
(0.186615 -0.652862 0)
(-0.0208258 -0.777614 0)
(0.110339 -0.840549 0)
(0.129907 -0.708875 0)
(0.0260788 -0.817983 0)
(0.0972712 -0.869174 0)
(0.218655 -0.795699 0)
(0.14487 -0.805174 0)
(0.00870404 -0.795488 0)
(0.0674409 -0.769352 0)
(0.0200034 -0.821567 0)
(0.623027 -0.431269 0)
(0.205236 -0.854485 0)
(0.0343235 -0.907173 0)
(-0.0235196 -0.841162 0)
(-0.0632487 -0.795926 0)
(0.0581485 -0.897973 0)
(0.110601 -0.853855 0)
(-0.0146286 -0.858367 0)
(0.0759255 -0.906876 0)
(0.368854 -0.613407 0)
(-0.0424775 -0.866672 0)
(0.127738 -0.872014 0)
(0.059664 -0.892749 0)
(0.00602508 -0.826407 0)
(0.133157 -0.901274 0)
(0.129895 -0.797136 0)
(-0.020757 -0.876918 0)
(0.147856 -0.697443 0)
(-0.0342139 -0.794446 0)
(0.132294 -0.779069 0)
(0.0391637 -0.912438 0)
(-0.0374385 -0.912617 0)
(-0.0503156 -0.862934 0)
(-0.0232273 -0.784083 0)
(0.0447444 -0.880027 0)
(-0.0809088 -0.887668 0)
(-0.119921 -0.859461 0)
(-0.0763302 -0.919562 0)
(0.025735 -0.917006 0)
(0.0759936 -0.835402 0)
(0.15518 -0.864056 0)
(0.0823573 -0.747408 0)
(-0.00985645 -0.758659 0)
(0.234437 -0.678533 0)
(0.217196 -0.755037 0)
(0.897018 -0.0395986 0)
(0.217124 -0.697298 0)
(0.0569227 -0.820623 0)
(-0.0587988 -0.742977 0)
(0.0860598 -0.816157 0)
(0.148361 -0.736358 0)
(0.0866028 -0.843184 0)
(0.101742 -0.799538 0)
(0.220657 -0.690769 0)
(0.0466451 -0.796027 0)
(0.191096 -0.772327 0)
(0.0850783 -0.719472 0)
(0.0603598 -0.807209 0)
(0.15125 -0.675975 0)
(0.10813 -0.812019 0)
(0.159487 -0.804706 0)
(0.0434143 -0.841538 0)
(0.526265 -0.349824 0)
(0.225764 -0.810201 0)
(0.212806 -0.825064 0)
(0.186136 -0.79362 0)
(0.0651094 -0.844941 0)
(0.0776224 -0.862429 0)
(0.00343972 -0.862155 0)
(0.0182002 -0.835681 0)
(0.0780195 -0.820487 0)
(-0.0275647 -0.838631 0)
(0.266218 -0.559711 0)
(0.101038 -0.709194 0)
(-0.041412 -0.8402 0)
(-0.0366706 -0.819244 0)
(0.143401 -0.733319 0)
(0.117774 -0.743396 0)
(-0.0145197 -0.825346 0)
(0.319708 -0.513451 0)
(0.212954 -0.567727 0)
(0.0617351 -0.810222 0)
(-0.101032 -0.82284 0)
(0.126637 -0.714768 0)
(0.69973 -0.270078 0)
(0.171049 -0.706151 0)
(0.0991814 -0.781805 0)
(-0.0836807 -0.859364 0)
(0.220736 -0.648666 0)
(0.041999 -0.868768 0)
(0.176717 -0.681426 0)
(0.0855104 -0.742691 0)
(-0.0147488 -0.773688 0)
(0.140046 -0.753715 0)
(0.0237391 -0.821651 0)
(-0.00517549 -0.801635 0)
(-0.0713798 -0.828465 0)
(0.0550214 -0.704568 0)
(0.053132 -0.79309 0)
(0.03807 -0.807662 0)
(-0.0767316 -0.706838 0)
(0.00784195 -0.79739 0)
(0.155923 -0.640251 0)
(0.242698 -0.536481 0)
(0.0892878 -0.758885 0)
(0.0231741 -0.738406 0)
(-0.107169 -0.729091 0)
(0.197568 -0.759794 0)
(0.109627 -0.81025 0)
(0.404079 -0.36093 0)
(0.0421211 -0.822795 0)
(0.0127509 -0.713109 0)
(0.193563 -0.760656 0)
(0.2143 -0.737085 0)
(0.0143141 -0.792164 0)
(0.0387074 -0.78464 0)
(0.0326582 -0.719074 0)
(0.133077 -0.776228 0)
(0.0319481 -0.822424 0)
(0.0519392 -0.819828 0)
(0.636205 -0.19241 0)
(0.0561755 -0.795218 0)
(-0.0693759 -0.763486 0)
(0.139241 -0.757002 0)
(0.272927 -0.612726 0)
(-0.00315279 -0.712055 0)
(-0.0820353 -0.708793 0)
(0.127048 -0.737906 0)
(0.0468844 -0.800143 0)
(0.0266755 -0.827853 0)
(-0.106938 -0.756728 0)
(0.0898512 -0.813701 0)
(0.214878 -0.71642 0)
(0.0855824 -0.609566 0)
(0.159695 -0.702997 0)
(0.116634 -0.777509 0)
(0.208509 -0.7705 0)
(0.0484651 -0.821689 0)
(0.190602 -0.670038 0)
(0.106345 -0.807628 0)
(0.0428869 -0.634633 0)
(-0.0332785 -0.770604 0)
(0.10536 -0.726008 0)
(-0.186928 -0.710008 0)
(-0.0974869 -0.689835 0)
(0.156364 -0.526073 0)
(0.167357 -0.721035 0)
(0.0351342 -0.736679 0)
(0.0612854 -0.735539 0)
(-0.0440258 -0.773092 0)
(-0.102251 -0.724362 0)
(-0.135387 -0.740159 0)
(0.148201 -0.739112 0)
(-0.036646 -0.737186 0)
(-0.0498172 -0.700964 0)
(-0.121649 -0.76518 0)
(-0.077906 -0.691365 0)
(-0.0461064 -0.645438 0)
(-0.0864111 -0.752278 0)
(-0.0491686 -0.757863 0)
(-0.076245 -0.687093 0)
(0.0352582 -0.700167 0)
(-0.0464383 -0.640087 0)
(-0.15754 -0.713283 0)
(-0.662039 -0.765795 0)
(0.275244 -0.564634 0)
(0.179085 -0.717824 0)
(0.196188 -0.668866 0)
(0.121587 -0.709134 0)
(0.168019 -0.700471 0)
(0.543708 -0.543446 0)
(0.207474 -0.733499 0)
(0.0630615 -0.774521 0)
(-0.0576257 -0.767558 0)
(-0.0801206 -0.757065 0)
(-0.0313726 -0.755031 0)
(0.117609 -0.745069 0)
(-0.0486741 -0.731307 0)
(-0.0182083 -0.71707 0)
(0.467488 -0.60217 0)
(-0.150028 -0.733873 0)
(0.0968714 -0.752748 0)
(0.0709691 -0.774729 0)
(-0.0616965 -0.675822 0)
(-0.0616118 -0.691472 0)
(0.157932 -0.728049 0)
(-0.112943 -0.750844 0)
(-0.0427916 -0.7836 0)
(-0.0530114 -0.76134 0)
(-0.0447866 -0.781315 0)
(0.0485324 -0.778663 0)
(0.316814 -0.464449 0)
(0.163012 -0.613804 0)
(-0.00761565 -0.66948 0)
(0.324955 -0.445787 0)
(0.138993 -0.675675 0)
(0.235377 -0.605684 0)
(0.0642752 -0.676715 0)
(-0.0506535 -0.725859 0)
(-0.0628137 -0.718217 0)
(0.146922 -0.663176 0)
(-0.113164 -0.704228 0)
(0.12665 -0.679028 0)
(-0.0358562 -0.729305 0)
(0.164541 -0.609362 0)
(0.119174 -0.71792 0)
(-0.100317 -0.714769 0)
(0.0867688 -0.706208 0)
(-0.0159077 -0.723777 0)
(0.137094 -0.617307 0)
(-0.0596442 -0.662828 0)
(0.0435953 -0.678241 0)
(-0.18464 -0.675008 0)
(0.0745312 -0.669866 0)
(0.129102 -0.718196 0)
(0.0388017 -0.730223 0)
(-0.0589761 -0.67273 0)
(0.0731663 -0.698987 0)
(0.0589477 -0.669144 0)
(-0.0372367 -0.635445 0)
(0.0199948 -0.737723 0)
(0.0835521 -0.728124 0)
(-0.134487 -0.715516 0)
(-0.0751297 -0.726601 0)
(0.0503515 -0.70039 0)
(0.0353493 -0.734683 0)
(-0.0573643 -0.7276 0)
(0.0123791 -0.736044 0)
(0.108808 -0.695801 0)
(0.0208364 -0.73642 0)
(0.0521947 -0.681925 0)
(0.0849075 -0.724243 0)
(0.0755196 -0.695824 0)
(-0.0204939 -0.721005 0)
(-0.043001 -0.719689 0)
(-0.0117133 -0.686771 0)
(-0.164044 -0.691923 0)
(0.0820152 -0.70508 0)
(-0.0604813 -0.714494 0)
(-0.0606734 -0.645414 0)
(-0.042323 -0.667482 0)
(0.191268 -0.565828 0)
(0.0305467 -0.667733 0)
(0.133225 -0.652319 0)
(0.0209719 -0.67699 0)
(0.0044576 -0.585618 0)
(0.0816516 -0.636453 0)
(-0.0411016 -0.654128 0)
(0.149957 -0.589326 0)
(0.211118 -0.484326 0)
(0.204275 -0.634666 0)
(0.212477 -0.639221 0)
(-0.0489765 -0.637408 0)
(0.0771033 -0.615537 0)
(0.0124946 -0.688857 0)
(0.205259 -0.628922 0)
(-0.0571308 -0.667419 0)
(0.0117025 -0.660799 0)
(0.0802251 -0.619682 0)
(0.100043 -0.528211 0)
(-0.120256 -0.618484 0)
(-0.0349108 -0.674146 0)
(0.165081 -0.448826 0)
(0.100527 -0.626956 0)
(-0.049376 -0.679758 0)
(-0.148111 -0.652518 0)
(-0.082942 -0.67449 0)
(0.112984 -0.634274 0)
(0.0823627 -0.640331 0)
(-0.0936187 -0.660086 0)
(0.166593 -0.658715 0)
(-0.094714 -0.609685 0)
(0.0458897 -0.63986 0)
(0.0153574 -0.687147 0)
(-0.0308851 -0.668649 0)
(-0.0285219 -0.64411 0)
(-0.056854 -0.6312 0)
(0.0719876 -0.63153 0)
(-0.0512122 -0.681865 0)
(0.0423125 -0.649415 0)
(-0.0428062 -0.600286 0)
(-0.0202197 -0.668247 0)
(0.0971678 -0.633006 0)
(-0.0923775 -0.66214 0)
(0.037729 -0.672686 0)
(0.0645959 -0.647614 0)
(0.0119446 -0.687061 0)
(0.0409757 -0.676533 0)
(-0.067028 -0.598674 0)
(0.0574717 -0.638576 0)
(-0.125334 -0.607109 0)
(-0.00510919 -0.624261 0)
(0.0375287 -0.595994 0)
(-0.0567303 -0.609851 0)
(-0.0363545 -0.631928 0)
(0.199906 -0.563871 0)
(-0.0116681 -0.599819 0)
(-0.00265823 -0.630448 0)
(0.116826 -0.61819 0)
(-0.0194325 -0.620822 0)
(-0.173076 -0.553706 0)
(0.0582354 -0.606681 0)
(-0.0751399 -0.621784 0)
(0.181795 -0.552915 0)
(-0.0573215 -0.616161 0)
(0.166262 -0.612689 0)
(0.0872793 -0.586197 0)
(-0.116764 -0.593807 0)
(0.0200045 -0.640786 0)
(0.125761 -0.600362 0)
(0.116685 -0.599391 0)
(0.212202 -0.584673 0)
(-0.00811815 -0.63836 0)
(0.0397588 -0.620716 0)
(0.139722 -0.585196 0)
(-0.206526 -0.586051 0)
(-0.151956 -0.574348 0)
(0.114283 -0.560192 0)
(0.0511209 -0.606311 0)
(0.185497 -0.444253 0)
(-0.00213262 -0.651753 0)
(-0.0717938 -0.569486 0)
(-0.0716451 -0.596986 0)
(-0.11965 -0.570309 0)
(-0.0157594 -0.658902 0)
(0.00433062 -0.646554 0)
(-0.0403451 -0.626562 0)
(0.0105267 -0.63413 0)
(-0.0650637 -0.533302 0)
(-0.0172892 -0.595685 0)
(-0.0301235 -0.499818 0)
(-0.0936 -0.5886 0)
(-0.114146 -0.531011 0)
(-0.0270551 -0.627748 0)
(-0.0475875 -0.633575 0)
(-0.0742051 -0.49649 0)
(-0.0355936 -0.673704 0)
(0.0554412 -0.601986 0)
(-0.00696423 -0.634162 0)
(0.0889292 -0.604395 0)
(0.163435 -0.521064 0)
(0.0309085 -0.568784 0)
(-0.0143574 -0.567327 0)
(-0.222385 -0.535449 0)
(0.36504 -0.228749 0)
(-0.129308 -0.520301 0)
(-0.432301 -1.03936 0)
(0.0898004 -0.628683 0)
(0.148244 -0.576073 0)
(-0.021616 -0.443846 0)
(-0.145222 -0.572663 0)
(-0.0565457 -0.563566 0)
(0.154811 -0.557959 0)
(-0.058556 -0.588691 0)
(-0.00754255 -0.675122 0)
(-0.131269 -0.556657 0)
(-0.183645 -0.552835 0)
(0.0232234 -0.594755 0)
(-0.074672 -0.541454 0)
(-0.0801627 -0.569252 0)
(0.0403564 -0.567641 0)
(0.0304117 -0.576303 0)
(-0.149348 -0.563269 0)
(0.015707 -0.570154 0)
(0.165025 -0.560236 0)
(-0.098834 -0.54278 0)
(-0.124265 -0.57475 0)
(0.0805313 -0.588302 0)
(0.0694196 -0.540198 0)
(0.0725948 -0.577136 0)
(0.0116772 -0.507054 0)
(0.017286 -0.558253 0)
(0.0417464 -0.535138 0)
(-0.137027 -0.563667 0)
(-0.0126188 -0.596698 0)
(0.159744 -0.535179 0)
(0.167666 -0.537954 0)
(0.142221 -0.570231 0)
(-0.0293512 -0.58906 0)
(-0.212803 -0.540883 0)
(0.0971863 -0.567067 0)
(0.0143193 -0.58916 0)
(-0.133145 -0.551864 0)
(0.0495262 -0.550831 0)
(-0.127837 -0.551385 0)
(0.182175 -0.552746 0)
(-0.0459323 -0.56835 0)
(-0.0504313 -0.559091 0)
(0.0961954 -0.585598 0)
(-0.0582433 -0.589961 0)
(0.0516722 -0.589615 0)
(-0.0815854 -0.539057 0)
(0.153744 -0.514878 0)
(-0.198936 -0.506219 0)
(0.127142 -0.507304 0)
(0.0886522 -0.527152 0)
(0.220556 -0.481832 0)
(-0.0187501 -0.547245 0)
(-0.0488062 -0.542873 0)
(-0.0159072 -0.502898 0)
(0.128768 -0.505418 0)
(-0.012724 -0.546416 0)
(0.13278 -0.514532 0)
(0.123353 -0.530442 0)
(-0.00569229 -0.547533 0)
(-0.0300691 -0.532259 0)
(-0.0370548 -0.544983 0)
(-0.0950095 -0.493649 0)
(0.0847891 -0.522075 0)
(-0.00669226 -0.54819 0)
(0.117685 -0.526255 0)
(0.125588 -0.500491 0)
(0.0126946 -0.54714 0)
(0.163224 -0.51783 0)
(-0.0861642 -0.510831 0)
(0.0458991 -0.527923 0)
(-0.140778 -0.503117 0)
(-0.213598 -0.486913 0)
(0.107932 -0.5287 0)
(-0.0816961 -0.49429 0)
(0.0762585 -0.537845 0)
(-0.0605287 -0.536803 0)
(-0.0506588 -0.543892 0)
(-0.0270033 -0.545351 0)
(-0.01515 -0.526831 0)
(-0.0643611 -0.539532 0)
(-0.140971 -0.520745 0)
(0.0339683 -0.543657 0)
(0.155818 -0.486988 0)
(0.0322873 -0.539381 0)
(0.155473 -0.516056 0)
(0.0286191 -0.538819 0)
(0.0314135 -0.532479 0)
(0.00529852 -0.545351 0)
(0.0410223 -0.545298 0)
(0.00880335 -0.542659 0)
(-0.0245956 -0.530947 0)
(-0.156106 -0.486267 0)
(0.011713 -0.547762 0)
(0.0333379 -0.514591 0)
(0.246044 -0.486839 0)
)


// ************************************************************************* //
