/*--------------------------------*- C++ -*----------------------------------*\
| =========                 |                                                 |
| \\      /  F ield         | OpenFOAM: The Open Source CFD Toolbox           |
|  \\    /   O peration     | Version:  2.2.0                                 |
|   \\  /    A nd           | Web:      www.OpenFOAM.org                      |
|    \\/     M anipulation  |                                                 |
\*---------------------------------------------------------------------------*/
FoamFile
{
    version     2.0;
    format      ascii;
    class       volScalarField;
    object      alpha1;
}
// * * * * * * * * * * * * * * * * * * * * * * * * * * * * * * * * * * * * * //

dimensions          [ 0 0 0 0 0 0 0 ];

internalField       uniform 0;

boundaryField
{
    bottom
    {
        type               inletOutlet;
        value              uniform 0.6;
	inletValue $value;
	phi phi1;
    }

    top
    {
        type               inletOutlet;
        inletValue         uniform 0;
    }

    walls
    {
        type               zeroGradient;
    }

    floor 
    {
      $walls;
    }
      
    frontBack
    {
        type               empty;
    }

}

// * * * * * * * * * * * * * * * * * * * * * * * * * * * * * * * * * * * * * //
