/*--------------------------------*- C++ -*----------------------------------*\
| =========                 |                                                 |
| \\      /  F ield         | OpenFOAM: The Open Source CFD Toolbox           |
|  \\    /   O peration     | Version:  v1906                                 |
|   \\  /    A nd           | Web:      www.OpenFOAM.com                      |
|    \\/     M anipulation  |                                                 |
\*---------------------------------------------------------------------------*/
FoamFile
{
    version     2.0;
    format      ascii;
    class       dictionary;
    location    "system";
    object      controlDict;
}
// * * * * * * * * * * * * * * * * * * * * * * * * * * * * * * * * * * * * * //

application     rhoPimpleFoam;

startFrom       startTime;

startTime       0;

stopAt          endTime;

endTime         100;

deltaT          0.01;

writeControl    runTime;

writeInterval   1;

purgeWrite      0;

writeFormat     ascii;

writePrecision  10;

writeCompression on;

timeFormat      general;

timePrecision   6;

runTimeModifiable true;

adjustTimeStep  no;

maxCo           0.3;

maxDeltaT       1;

libs (
    "libsimpleRegionSolvers.so"
    "libsimpleSwakFunctionObjects.so"
);

functions {
    solveLeftHeater {
        type heatConductionRegionSolver;
        meshRegion leftHeater;
    }
    cavityTemperature {
        type swakExpression;
        valueType internalField;
        accumulations (
            min
            max
        );
        expression "T";
        verbose true;
    }
    cavityPressure {
        $cavityTemperature;
        expression "p";
    }
}

// ************************************************************************* //
