/*--------------------------------*- C++ -*----------------------------------*\
| =========                 |                                                 |
| \\      /  F ield         | OpenFOAM Extend Project: Open source CFD        |
|  \\    /   O peration     | Version:  1.6-ext                               |
|   \\  /    A nd           | Web:      www.extend-project.de                 |
|    \\/     M anipulation  |                                                 |
\*---------------------------------------------------------------------------*/
FoamFile
{
    version     2.0;
    format      ascii;
    class       dictionary;
    location    "system";
    object      faSchemes;
}
// * * * * * * * * * * * * * * * * * * * * * * * * * * * * * * * * * * * * * //

ddtSchemes
{
    default            Euler;
}

gradSchemes
{
    default             Gauss linear;
    grad(p)             Gauss linear;
}

divSchemes
{
    default             none;
    div(phis,Cs)        Gauss linear;

    "div\(phis.*,YTransient\)" Gauss linear;
    "div\(phis.*,YSteady\)" Gauss linear;
}

laplacianSchemes
{
    default             none;
    laplacian(Ds,Cs)    Gauss linear corrected;

    laplacian(lambda,TTransient) Gauss linear corrected;
    laplacian(lambda,TSteady) Gauss linear corrected;

    laplacian(diffusion,YTransient) Gauss linear corrected;
    laplacian(diffusion,YSteady) Gauss linear corrected;
}

interpolationSchemes
{
    default         linear;
}

snGradSchemes
{
    default             corrected;
}

fluxRequired
{
    p;
}


// ************************************************************************* //
