/*--------------------------------*- C++ -*----------------------------------*\
| =========                 |                                                 |
| \\      /  F ield         | OpenFOAM: The Open Source CFD Toolbox           |
|  \\    /   O peration     | Version:  v1906                                 |
|   \\  /    A nd           | Web:      www.OpenFOAM.com                      |
|    \\/     M anipulation  |                                                 |
\*---------------------------------------------------------------------------*/
FoamFile
{
    version     2.0;
    format      ascii;
    class       dictionary;
    location    "system";
    object      fvSolution;
}
// * * * * * * * * * * * * * * * * * * * * * * * * * * * * * * * * * * * * * //

solvers
{
    Phi
    {
        solver          GAMG;
        smoother        DIC;

        tolerance       1e-06;
        relTol          0.01;
    }

    PhiFinal
    {
        $Phi;
        relTol 0;
    }

    p
    {
        $Phi;
    }
    pFinal
    {
        $PhiFinal;
    }
}

potentialFlow
{
    nNonOrthogonalCorrectors 2;
}

// ************************************************************************* //
