/*--------------------------------*- C++ -*----------------------------------*\
| =========                 |                                                 |
| \\      /  F ield         | OpenFOAM: The Open Source CFD Toolbox           |
|  \\    /   O peration     | Version:  2.1.x                                 |
|   \\  /    A nd           | Web:      www.OpenFOAM.org                      |
|    \\/     M anipulation  |                                                 |
\*---------------------------------------------------------------------------*/
FoamFile
{
    version     2.0;
    format      ascii;
    class       dictionary;
    location    "system";
    object      controlDict;
}
// * * * * * * * * * * * * * * * * * * * * * * * * * * * * * * * * * * * * * //

application     rhoPimpleFoam;

startFrom       latestTime;

startTime       0;

stopAt          endTime;

endTime         10;

deltaT          0.1;

writeControl    adjustableRunTime;

writeInterval   1;

purgeWrite      0;

writeFormat     ascii;

writePrecision  6;

writeCompression on;

timeFormat      general;

timePrecision   6;

runTimeModifiable true;

adjustTimeStep  no;

maxCo           10;

maxDeltaT       1;

libs (
    "libsimpleSwakFunctionObjects.so"
);

functions {
    initSwak {
        // needed to allow DataEntry to work
        type initSwakFunctionObject;
        region region0;
    }
    massFlow {
        type patchExpression;
        verbose true;
        accumulations (
            sum
        );
        patches (
            inlet
            outlet
        );
        expression "phi";
    }
    massFlowDeficit {
        type swakExpression;
        valueType patch;
        verbose true;
        patchName inlet;
        expression "outFlow+sum(phi)";
        variables (
            "outFlow{outlet}=sum(phi);"
        );
        accumulations (
            average
        );
    }
};

// ************************************************************************* //
