/*--------------------------------*- C++ -*----------------------------------*\
| =========                 |                                                 |
| \\      /  F ield         | OpenFOAM: The Open Source CFD Toolbox           |
|  \\    /   O peration     | Version:  2.2.2                                 |
|   \\  /    A nd           | Web:      www.OpenFOAM.org                      |
|    \\/     M anipulation  |                                                 |
\*---------------------------------------------------------------------------*/
FoamFile
{
    version     2.0;
    format      ascii;
    class       dictionary;
    location    "system";
    object      fvSolution;
}
// * * * * * * * * * * * * * * * * * * * * * * * * * * * * * * * * * * * * * //

solvers
{
    p
    {
        solver          PCG;
        preconditioner  DIC;
        tolerance       1e-07;
        relTol          0.01;
    }

    pFinal
    {
        $p;
        relTol          0;
    }

    "(rho|U|e|h|k|epsilon|omega)"
    {
        solver          smoothSolver;
        smoother        symGaussSeidel;
        tolerance       1e-06;
        relTol          0.1;
    }

    "(rho|U|e|h|k|epsilon|omega)Final"
    {
        $U;
        relTol          0;
    }
}

SIMPLE
{
    nUCorrectors    2;
    nNonOrthogonalCorrectors 0;
    rhoMin          rhoMin [ 1 -3 0 0 0 ] 0.5;
    rhoMax          rhoMAx [ 1 -3 0 0 0 ] 2.0;
<!--(if foamFork=="extend")-->
    pMin            pMin [ 1 -1 -2 0 0 0 0 ] 100;
<!--(end)-->

    residualControl
    {
        p               1e-3;
        U               1e-4;
        e               1e-3;

        // possibly check turbulence fields
        "(k|epsilon|omega)" 1e-3;
    }
}

PIMPLE {
    momentumPredictor   yes;
    transonic           no;
    nOuterCorrectors    50;
    nCorrectors         1;
    nNonOrthogonalCorrectors 0;
    consistent          yes;
    SIMPLErho           yes;

    pMaxFactor          1.5;
    pMinFactor          0.9;

    residualControl
    {
        "(U|k|epsilon)"
        {
            relTol          0;
            tolerance       0.0001;
        }
    }

    turbOnFinalIterOnly no;
}

relaxationFactors
{
    fields
    {
        p               0.3;
        rho             1;
    }
    equations
    {
        U               0.7;
        "(k|epsilon)"   0.9;
        e               0.9;
    }
}


// ************************************************************************* //
