/*--------------------------------*- C++ -*----------------------------------*\
| =========                 |                                                 |
| \\      /  F ield         | OpenFOAM: The Open Source CFD Toolbox           |
|  \\    /   O peration     | Version:  1.7.1                                 |
|   \\  /    A nd           | Web:      www.OpenFOAM.com                      |
|    \\/     M anipulation  |                                                 |
\*---------------------------------------------------------------------------*/
FoamFile
{
    version     2.0;
    format      ascii;
    class       volScalarField;
    object      rand;
}
// * * * * * * * * * * * * * * * * * * * * * * * * * * * * * * * * * * * * * //

dimensions      [0 0 0 0 0 0 0];

internalField   uniform 0;

boundaryField
{
    movingWall
    {
        type            groovyBC;
        globalScopes ( variablesFromNumpy );
        value           uniform 0;
        valueExpression "normalScalar+randomField";
    }

    fixedWalls
    {
        type            groovyBC;
        value           uniform 0;
        globalScopes ( variablesFromNumpy );
        valueExpression "total.x";
    }

    frontAndBack
    {
        type            empty;
    }
}

// ************************************************************************* //
