/*--------------------------------*- C++ -*----------------------------------*\
| =========                 |                                                 |
| \\      /  F ield         | OpenFOAM: The Open Source CFD Toolbox           |
|  \\    /   O peration     | Version:  v1906                                 |
|   \\  /    A nd           | Web:      www.OpenFOAM.com                      |
|    \\/     M anipulation  |                                                 |
\*---------------------------------------------------------------------------*/
FoamFile
{
    version     2.0;
    format      ascii;
    class       dictionary;
    object      thermophysicalProperties;
}
// * * * * * * * * * * * * * * * * * * * * * * * * * * * * * * * * * * * * * //

thermoType
{
    type            heSolidThermo;
    mixture         multiComponentMixture;
    transport       constIso;
    thermo          hConst;
    equationOfState rhoConst;
    specie          specie;
    energy          sensibleEnthalpy;
}

species (
    copper
    alumina
);

copper {
    specie
    {
        molWeight 1;
    }
    equationOfState
    {
        rho 8960;
    }
    thermodynamics
    {
        Cp    390;
        Hf 0;
    }
    transport {
        kappa 401;
    }
}
alumina {
    specie
    {
        molWeight 1;
    }
    equationOfState
    {
        rho 3987;
    }
    thermodynamics
    {
        Cp   880;
        Hf 0;
    }
    transport {
        kappa 30;
    }
}
// ************************************************************************* //
