// -*- C++ -*-
// File generated by PyFoam - sorry for the ugliness

FoamFile
{
 version 2.0;
 format ascii; 	
 class dictionary; 	
 object blockMeshDict; 	
}

convertToMeters 1;

vertices
  (
    (0 -0.1 -0.05)
    (1 -0.1 -0.05)
    (1 0.1 -0.05)
    (0 0.1 -0.05)
    (0 -0.1 0.05)
    (1 -0.1 0.05)
    (1 0.1 0.05)
    (0 0.1 0.05)
  ); 	

blocks
  (
    hex

    (
      0
      1
      2
      3
      4
      5
      6
      7
    )
    (100 10 1)
    simpleGrading
    (1 1 1)
  ); 	

edges
  (
  ); 	

patches
  (
    patch
    fixed

    (

      (
        0
        3
        7
        4
      )
    )
    symmetryPlane
    free

    (

      (
        1
        2
        6
        5
      )
    )
    patch
    forced

    (

      (
        0
        4
        5
        1
      )
    )
    patch
    other

    (

      (
        2
        3
        7
        6
      )
    )
  ); 	

mergePatchPairs
  (
  ); 	

boundary
  (
    fixed

    {
      faces
        (

          (
            0
            3
            7
            4
          )
        );
      type patch;

    }
    free

    {
      faces
        (

          (
            1
            2
            6
            5
          )
        );
      type symmetryPlane;

    }
    forced

    {
      faces
        (

          (
            0
            4
            5
            1
          )
        );
      type patch;

    }
    other

    {
      faces
        (

          (
            2
            3
            7
            6
          )
        );
      type patch;

    }
  );

