/*--------------------------------*- C++ -*----------------------------------*\
| =========                 |                                                 |
| \\      /  F ield         | foam-extend: Open Source CFD                    |
|  \\    /   O peration     | Version:     4.0                                |
|   \\  /    A nd           | Web:         http://www.foam-extend.org         |
|    \\/     M anipulation  |                                                 |
\*---------------------------------------------------------------------------*/
FoamFile
{
    version     2.0;
    format      ascii;
    class       polyBoundaryMesh;
    location    "constant/polyMesh";
    object      boundary;
}
// * * * * * * * * * * * * * * * * * * * * * * * * * * * * * * * * * * * * * //

5
(
    inlet
    {
        type            patch;
        nFaces          10;
        startFace       9490;
    }
    outlet
    {
        type            patch;
        nFaces          10;
        startFace       9500;
    }
    upperWall
    {
        type            wall;
        nFaces          500;
        startFace       9510;
    }
    lowerWall
    {
        type            wall;
        nFaces          500;
        startFace       10010;
    }
    frontAndBack
    {
        type            empty;
        nFaces          10000;
        startFace       10510;
    }
)


// ************************************************************************* //
