/*--------------------------------*- C++ -*----------------------------------*\
| =========                 |                                                 |
| \\      /  F ield         | OpenFOAM: The Open Source CFD Toolbox           |
|  \\    /   O peration     | Version:  1.7.1                                 |
|   \\  /    A nd           | Web:      www.OpenFOAM.com                      |
|    \\/     M anipulation  |                                                 |
\*---------------------------------------------------------------------------*/
FoamFile
{
    version     2.0;
    format      ascii;
    class       dictionary;
    location    "system";
    object      controlDict;
}
// * * * * * * * * * * * * * * * * * * * * * * * * * * * * * * * * * * * * * //

application     scalarTransportFoam;

startFrom       startTime;

startTime       0;

stopAt          endTime;

endTime         0.1;

deltaT          0.0001;

writeControl    timeStep;

writeInterval   50;

purgeWrite      0;

writeFormat     ascii;

writePrecision  6;

writeCompression compressed;

timeFormat      general;

timePrecision   6;

runTimeModifiable yes;

functions {
    TCompare {
        type solveTransportPDE;
        outputControl   timeStep;
        outputInterval  1;

        solveAt timestep;
        fieldName TCompare;
        steady false;
        rho "1" [0 0 0 0 0 0 0];
        diffusion "0.01" [0 2 -1 0 0 0 0];
        source "0" [0 0 -1 1 0 0 0];
        phi "phi" [0 3 -1 0 0];
    }
    TUpwind {
        $TCompare;

        fieldName TUpwind;
    }
    TLinear {
        $TCompare;

        fieldName TLinear;
    }
    TSteady {
        $TCompare;

        fieldName TSteady;
        steady true;
        solveAt startup;
    }
    compareTransient {
        type swakExpression;
        verbose true;
        expression "T-TCompare";
        accumulations (
            min
            max
            average
        );
        valueType internalField;
    }
    compareLinear {
        $compareTransient;
        expression "T-TLinear";
    }
    compareUpwind {
        $compareTransient;
        expression "T-TUpwind";
    }
}

libs ( 
    "libOpenFOAM.so" 
    "libsimpleSwakFunctionObjects.so" 
    "libswakFunctionObjects.so" 
) ;

// ************************************************************************* //
