/*--------------------------------*- C++ -*----------------------------------*\
| =========                 |                                                 |
| \\      /  F ield         | OpenFOAM: The Open Source CFD Toolbox           |
|  \\    /   O peration     | Version:  2.0.x                                 |
|   \\  /    A nd           | Web:      www.OpenFOAM.org                      |
|    \\/     M anipulation  |                                                 |
\*---------------------------------------------------------------------------*/
FoamFile
{
    version     2.0;
    format      ascii;
    class       polyBoundaryMesh;
    location    "constant/polyMesh";
    object      boundary;
}
// * * * * * * * * * * * * * * * * * * * * * * * * * * * * * * * * * * * * * //

4
(
    wall
    {
        type            wall;
        nFaces          180;
        startFace       7840;
    }
    outlet
    {
        type            patch;
        nFaces          60;
        startFace       8020;
    }
    hole
    {
        type            patch;
        nFaces          80;
        startFace       8080;
    }
    frontAndBack
    {
        type            empty;
        nFaces          8000;
        startFace       8160;
    }
)

// ************************************************************************* //
