/*--------------------------------*- C++ -*----------------------------------*\
| =========                 |                                                 |
| \\      /  F ield         | OpenFOAM: The Open Source CFD Toolbox           |
|  \\    /   O peration     | Version:  2.3.0                                 |
|   \\  /    A nd           | Web:      www.OpenFOAM.org                      |
|    \\/     M anipulation  |                                                 |
\*---------------------------------------------------------------------------*/
FoamFile
{
    version     2.0;
    format      ascii;
    class       dictionary;
    object      blockMeshDict;
}
// * * * * * * * * * * * * * * * * * * * * * * * * * * * * * * * * * * * * * //

convertToMeters 0.1;

// thickZ 0.5;
// nrZ 10;

thickZ 0.1;
nrZ 1;

vertices
(
    (0 0 0)
    (0.5 0 0)
    (1 0 0)
    (0 0.5 0)
    (0.5 0.5 0)
    (1 0.5 0)
    (0 1 0)
    (0.5 1 0)
    (1 1 0)
    (0 0 $thickZ)
    (0.5 0 $thickZ)
    (1 0 $thickZ)
    (0 0.5 $thickZ)
    (0.5 0.5 $thickZ)
    (1 0.5 $thickZ)
    (0 1 $thickZ)
    (0.5 1 $thickZ)
    (1 1 $thickZ)
    (1.5 0 0)
    (2.5 0 0)
    (2.5 1 0)
    (1.5 1 0)
    (1.5 0 $thickZ)
    (2.5 0 $thickZ)
    (2.5 1 $thickZ)
    (1.5 1 $thickZ)
);

blocks
(
    hex (0 1 4 3 9 10 13 12) (10 10 $nrZ) simpleGrading (2 2 1)
    hex (1 2 5 4 10 11 14 13) (10 10 $nrZ) simpleGrading (0.5 2 1)
    hex (3 4 7 6 12 13 16 15) (10 10 $nrZ) simpleGrading (2 0.5 1)
    hex (4 5 8 7 13 14 17 16) (10 10 $nrZ) simpleGrading (0.5 0.5 1)
    hex (18 19 20 21 22 23 24 25) (20 20 $nrZ) simpleGrading (1 1 1)

);

edges
(
);

boundary
(
    movingWall
    {
        type wall;
        faces
        (
            (6 15 16 7)
            (7 16 17 8)
            (21 25 24 20)
        );
    }
    fixedWalls
    {
        type wall;
        faces
        (
            (3 12 15 6)
            (0 9 12 3)
            (0 1 10 9)
            (1 2 11 10)
            (2 5 14 11)
            (5 8 17 14)
            (18 22 25 21)
            (20 24 23 19)
            (19 23 22 18)
        );
    }
    frontAndBack
    {
        type empty;
        faces
        (
            (0 3 4 1)
            (1 4 5 2)
            (3 6 7 4)
            (4 7 8 5)
            (9 10 13 12)
            (10 11 14 13)
            (12 13 16 15)
            (13 14 17 16)
            (18 21 20 19)
            (22 23 24 25)
        );
    }
);

mergePatchPairs
(
);

// ************************************************************************* //
