/*--------------------------------*- C++ -*----------------------------------*\
| =========                 |                                                 |
| \\      /  F ield         | OpenFOAM: The Open Source CFD Toolbox           |
|  \\    /   O peration     | Version:  1.7.1                                 |
|   \\  /    A nd           | Web:      www.OpenFOAM.com                      |
|    \\/     M anipulation  |                                                 |
\*---------------------------------------------------------------------------*/
FoamFile
{
    version     2.0;
    format      ascii;
    class       volScalarField;
    location    "0";
    object      alpha1;
}
// * * * * * * * * * * * * * * * * * * * * * * * * * * * * * * * * * * * * * //

dimensions      [0 0 0 0 0 0 0];

internalField   uniform 0;


boundaryField
{
    outlet
    {
        type            groovyBC;;
        value           uniform 0;
        valueExpression "maxInlet";
        variables (
            "inValue{inlet}=average(var1);"
            "maxInlet=max(inValue,maxInlet);"
        );
        storedVariables (
            {
                name maxInlet;
                initialValue "0";
            }
        );
    }
    inlet
    {
        type            groovyBC;
        valueExpression "sin(time())*sin(pos().x*pi)";
        value           uniform 0;
    }
    walls
    {
        type            zeroGradient;
    }
    frontAndBack
    {
        type            empty;
    }
}


// ************************************************************************* //
